                                  MODFLOW-2005     
      U.S. GEOLOGICAL SURVEY MODULAR FINITE-DIFFERENCE GROUND-WATER FLOW MODEL
                            VERSION 1.12.00 2/3/2017

 LIST FILE: swifogland_s3.list
                         UNIT    2

 OPENING swifogland_s3.dis
 FILE TYPE:DIS   UNIT   11   STATUS:OLD    
 FORMAT:FORMATTED              ACCESS:SEQUENTIAL          

 OPENING swifogland_s3.bas
 FILE TYPE:BAS6   UNIT   13   STATUS:OLD    
 FORMAT:FORMATTED              ACCESS:SEQUENTIAL          

 OPENING swifogland_s3.lpf
 FILE TYPE:LPF   UNIT   15   STATUS:OLD    
 FORMAT:FORMATTED              ACCESS:SEQUENTIAL          

 OPENING swifogland_s3.wel
 FILE TYPE:WEL   UNIT   20   STATUS:OLD    
 FORMAT:FORMATTED              ACCESS:SEQUENTIAL          

 OPENING swifogland_s3.ghb
 FILE TYPE:GHB   UNIT   23   STATUS:OLD    
 FORMAT:FORMATTED              ACCESS:SEQUENTIAL          

 OPENING swifogland_s3.rch
 FILE TYPE:RCH   UNIT   19   STATUS:OLD    
 FORMAT:FORMATTED              ACCESS:SEQUENTIAL          

 OPENING swifogland_s3.swi2
 FILE TYPE:SWI2   UNIT   29   STATUS:OLD    
 FORMAT:FORMATTED              ACCESS:SEQUENTIAL          

 OPENING swifogland_s3.oc
 FILE TYPE:OC   UNIT   14   STATUS:OLD    
 FORMAT:FORMATTED              ACCESS:SEQUENTIAL          

 OPENING swifogland_s3.pcg
 FILE TYPE:PCG   UNIT   27   STATUS:OLD    
 FORMAT:FORMATTED              ACCESS:SEQUENTIAL          

 OPENING swifogland_s3.zta
 FILE TYPE:DATA(BINARY)   UNIT   55   STATUS:REPLACE
 FORMAT:UNFORMATTED            ACCESS:STREAM              

 OPENING swifogland_s3.hds
 FILE TYPE:DATA(BINARY)   UNIT   51   STATUS:REPLACE
 FORMAT:UNFORMATTED            ACCESS:STREAM              

 BAS -- BASIC PACKAGE, VERSION 7, 5/2/2005 INPUT READ FROM UNIT   13
 
 MODFLOW was compiled using mixed precision
 Precision of REAL variables:           6
 Precision of DOUBLE PRECISION variables:          15

 DISCRETIZATION INPUT DATA READ FROM UNIT   11
 # DIS package for  MODFLOW-2005, generated by Flopy.
    3 LAYERS       100 ROWS       100 COLUMNS
    6 STRESS PERIOD(S) IN SIMULATION
 MODEL TIME UNIT IS DAYS
 MODEL LENGTH UNIT IS FEET
  Confining bed flag for each layer:
   0   0   0



                               DELR
 READING ON UNIT   11 WITH FORMAT: (100E15.6)          



                               DELC
 READING ON UNIT   11 WITH FORMAT: (100E15.6)          



           TOP ELEVATION OF LAYER 1
 READING ON UNIT   11 WITH FORMAT: (100E15.6)          

   MODEL LAYER BOTTOM EL. =  -43.0000     FOR LAYER   1

   MODEL LAYER BOTTOM EL. =  -90.0000     FOR LAYER   2

   MODEL LAYER BOTTOM EL. =  -200.000     FOR LAYER   3


 STRESS PERIOD     LENGTH       TIME STEPS     MULTIPLIER FOR DELT    SS FLAG
 ----------------------------------------------------------------------------
        1         73050.00       1000                    1.000         SS
        2         92.00000         92                    1.000         TR
        3         273.0000        273                    1.000         TR
        4         92.00000         92                    1.000         TR
        5         273.0000        273                    1.000         TR
        6         92.00000         92                    1.000         TR

 COMBINED STEADY-STATE AND TRANSIENT SIMULATION



 
 # BAS6 package for  MODFLOW-2005, generated by Flopy.                           
 THE FREE FORMAT OPTION HAS BEEN SELECTED



                     BOUNDARY ARRAY FOR LAYER   1
 READING ON UNIT   13 WITH FORMAT: (100I10)            



                     BOUNDARY ARRAY FOR LAYER   2
 READING ON UNIT   13 WITH FORMAT: (100I10)            



                     BOUNDARY ARRAY FOR LAYER   3
 READING ON UNIT   13 WITH FORMAT: (100I10)            

 AQUIFER HEAD WILL BE SET TO  -999.99     AT ALL NO-FLOW NODES (IBOUND=0).



                       INITIAL HEAD FOR LAYER   1
 READING ON UNIT   13 WITH FORMAT: (100E15.6)          



                       INITIAL HEAD FOR LAYER   2
 READING ON UNIT   13 WITH FORMAT: (100E15.6)          



                       INITIAL HEAD FOR LAYER   3
 READING ON UNIT   13 WITH FORMAT: (100E15.6)          
 # OC package for  MODFLOW-2005, generated by Flopy.

 OUTPUT CONTROL IS SPECIFIED ONLY AT TIME STEPS FOR WHICH OUTPUT IS DESIRED
 COMPACT CELL-BY-CELL BUDGET FILES WILL BE WRITTEN
 AUXILIARY DATA WILL BE SAVED IN CELL-BY-CELL BUDGET FILES
 HEAD PRINT FORMAT CODE IS   0    DRAWDOWN PRINT FORMAT CODE IS   0
 HEADS WILL BE SAVED ON UNIT   51    DRAWDOWNS WILL BE SAVED ON UNIT    0

 LPF -- LAYER-PROPERTY FLOW PACKAGE, VERSION 7, 5/2/2005
         INPUT READ FROM UNIT   15
 # LPF package for  MODFLOW-2005, generated by Flopy.
 HEAD AT CELLS THAT CONVERT TO DRY= -1.00000E+30
 No named parameters

   LAYER FLAGS:
 LAYER       LAYTYP        LAYAVG         CHANI        LAYVKA        LAYWET
 ---------------------------------------------------------------------------
    1             1             0     1.000E+00             0             0
    2             1             0     1.000E+00             0             0
    3             1             0     1.000E+00             0             0

   INTERPRETATION OF LAYER FLAGS:
                        INTERBLOCK     HORIZONTAL    DATA IN
         LAYER TYPE   TRANSMISSIVITY   ANISOTROPY   ARRAY VKA   WETTABILITY
 LAYER      (LAYTYP)      (LAYAVG)       (CHANI)      (LAYVKA)      (LAYWET)
 ---------------------------------------------------------------------------
    1   CONVERTIBLE      HARMONIC     1.000E+00    VERTICAL K  NON-WETTABLE
    2   CONVERTIBLE      HARMONIC     1.000E+00    VERTICAL K  NON-WETTABLE
    3   CONVERTIBLE      HARMONIC     1.000E+00    VERTICAL K  NON-WETTABLE

 WETTING CAPABILITY IS NOT ACTIVE IN ANY LAYER

    HYD. COND. ALONG ROWS =  0.395000     FOR LAYER   1

      VERTICAL HYD. COND. =  3.950000E-02 FOR LAYER   1

         SPECIFIC STORAGE =  1.000000E-04 FOR LAYER   1

           SPECIFIC YIELD =  1.000000E-04 FOR LAYER   1

    HYD. COND. ALONG ROWS =  0.395000     FOR LAYER   2

      VERTICAL HYD. COND. =  3.950000E-02 FOR LAYER   2

         SPECIFIC STORAGE =  1.000000E-04 FOR LAYER   2

           SPECIFIC YIELD =  1.000000E-04 FOR LAYER   2

    HYD. COND. ALONG ROWS =  0.395000     FOR LAYER   3

      VERTICAL HYD. COND. =  3.950000E-02 FOR LAYER   3

         SPECIFIC STORAGE =  1.000000E-04 FOR LAYER   3

           SPECIFIC YIELD =  1.000000E-04 FOR LAYER   3

 WEL -- WELL PACKAGE, VERSION 7, 5/2/2005 INPUT READ FROM UNIT   20
 # WEL package for  MODFLOW-2005, generated by Flopy.
 No named parameters
 MAXIMUM OF     16 ACTIVE WELLS AT ONE TIME


     0 Well parameters

 GHB -- GENERAL-HEAD BOUNDARY PACKAGE, VERSION 7, 5/2/2005
         INPUT READ FROM UNIT   23
 # GHB package for  MODFLOW-2005, generated by Flopy.
 No named parameters
 MAXIMUM OF   8042 ACTIVE GHB CELLS AT ONE TIME


     0 GHB parameters

 RCH -- RECHARGE PACKAGE, VERSION 7, 5/2/2005 INPUT READ FROM UNIT   19
 # RCH package for  MODFLOW-2005, generated by Flopy.
 No named parameters
 OPTION 3 -- RECHARGE TO HIGHEST ACTIVE NODE IN EACH VERTICAL COLUMN


     0 Recharge parameters

 PCG -- CONJUGATE-GRADIENT SOLUTION PACKAGE, VERSION 7, 5/2/2005
 # PCG package for  MODFLOW-2005, generated by Flopy.
 MAXIMUM OF    100 CALLS OF SOLUTION ROUTINE
 MAXIMUM OF     50 INTERNAL ITERATIONS PER CALL TO SOLUTION ROUTINE
 MATRIX PRECONDITIONING TYPE :    1



                                    SOLUTION BY THE CONJUGATE-GRADIENT METHOD
                                   -------------------------------------------
                    MAXIMUM NUMBER OF CALLS TO PCG ROUTINE =      100
                        MAXIMUM ITERATIONS PER CALL TO PCG =       50
                               MATRIX PRECONDITIONING TYPE =        1
        RELAXATION FACTOR (ONLY USED WITH PRECOND. TYPE 1) =    0.10000E+01
 PARAMETER OF POLYNOMIAL PRECOND. = 2 (2) OR IS CALCULATED :        0
                         HEAD CHANGE CRITERION FOR CLOSURE =    0.10000E-05
                     RESIDUAL CHANGE CRITERION FOR CLOSURE =    0.30000E-02
            PCG HEAD AND RESIDUAL CHANGE PRINTOUT INTERVAL =      999
     PRINTING FROM SOLVER IS LIMITED(1) OR SUPPRESSED (>1) =        3
                            STEADY-STATE DAMPING PARAMETER =    0.10000E+01
                               TRANSIENT DAMPING PARAMETER =    0.10000E+01


 SWI2 -- SWI PACKAGE, VERSION 2.0.0, 07/22/2013
 --------------------------------------------------
 SWI2 INPUT READ FROM UNIT 29


 # SWI2 package for  MODFLOW-2005, generated by Flopy.
 # Dataset 1


 SWI2 DATASET 1
 ----------------------------------------------------
 NUMBER OF SURFACES (NSRF):                         1
 TOTAL NUMBER OF ZONES:                             2
 DENSITY DISTRIBUTION OPTION (ISTRAT):              1
   VARIABLE DENSITY FLOW -- ISTRAT = 0
   STRATIFIED FLOW       -- ISTRAT = 1
 NUMBER OF SWI OBSERVATIONS (NOBS):                 0
 ZETA OUTPUT FILE UNIT NUMBER (ISWIZT):            55
 BUDGET OUTPUT FILE UNIT NUMBER (ISWICB):           0
 OBSERVATION OUTPUT FILE UNIT NUMBER (ISWIOBS):     0
 ----------------------------------------------------
 # Dataset 2a


 SWI2 DATASET 2A
 ----------------------------------------------------
 SOLVER (NSOLVER):                                  2
   SOLVER =  PRECONDITIONED CONJUGATE GRADIENT (PCG)
 SOLVER PRINTOUT INTERVAL (IPRSOL):               999
 SOLVER OUTPUT FLAG (MUTSOL):                       3
   0 = PRINTING EVERY ITERATION
   1 = LIMITED (TOTAL NUMBER OF ITERATIONS)
   2 = NO PRINTING
   3 = ONLY IF CONVERGENCE FAILS
 ----------------------------------------------------
 # Dataset 2b


 SWI2 DATASET 2B
 PRECONDITIONED CONJUGATE GRADIENT PARAMETERS
 ----------------------------------------------------
 MAXIMUM NUMBER OF CALLS TO PCG (MXITER):         100
 MAXIMUM ITERATIONS PER CALL TO PCG (ITER1):       20
 MATRIX PRECONDITIONING TYPE (NPCOND):              1
   1 = MODIFIED INCOMPLETE CHOLESKY
   2 = NEUMANN POLYNOMIAL - THE MATRIX WILL BE SCALED
 ZETA CLOSURE CRITERION (ZCLOSE):         0.10000E-02
 RESIDUAL CLOSURE CRITERION (RCLOSE):     0.10000E-03
 RELAXATION FACTOR (RELAX):                1.0000    
   ONLY USED WITH NPCOND = 1
 POLYNOMIAL PRECONDITIONER PARAMETER (NBPOL):       2
   INTERNALLY CALCULATED IF NPCOND.NE.2
 STEADY-STATE DAMPING (DAMPPCG):           1.0000    
 TRANSIENT DAMPING (DAMPPCGT):             1.0000    
 ----------------------------------------------------
 # Dataset 3a


 SWI2 DATASET 3A
 ----------------------------------------------------
 MAXIMUM TOE SURFACE SLOPE (TOESLOPE):      0.100    
 MAXIMUM TIP SURFACE SLOPE (TIPSLOPE):      0.100    
 EXCESS SURFACE SLOPE FRACTION (ALPHA):     0.100    
 MINIMUM ZONE THICKNESS FRACTION (BETA):    0.100    
 ----------------------------------------------------



                             NUZONE
 READING ON UNIT   29 WITH FORMAT: (2E15.6)            



                   ZETA SURFACE  1  FOR LAYER   1
 READING ON UNIT   29 WITH FORMAT: (100E15.6)          



                   ZETA SURFACE  1  FOR LAYER   2
 READING ON UNIT   29 WITH FORMAT: (100E15.6)          



                   ZETA SURFACE  1  FOR LAYER   3
 READING ON UNIT   29 WITH FORMAT: (100E15.6)          

                      SSZ =  1.400000E-03 FOR LAYER   1

                      SSZ =  1.400000E-03 FOR LAYER   2

                      SSZ =  1.400000E-03 FOR LAYER   3



                            IZONENR FOR LAYER   1
 READING ON UNIT   29 WITH FORMAT: (100I10)            



                            IZONENR FOR LAYER   2
 READING ON UNIT   29 WITH FORMAT: (100I10)            



                            IZONENR FOR LAYER   3
 READING ON UNIT   29 WITH FORMAT: (100I10)            
1
                            STRESS PERIOD NO.    1, LENGTH =   73050.00    
                            -----------------------------------------------

                              NUMBER OF TIME STEPS =  1000

                               MULTIPLIER FOR DELT =     1.000

                            INITIAL TIME STEP SIZE =   73.05000    

 WELL NO.  LAYER   ROW   COL   STRESS RATE         
 --------------------------------------------------
      1      1     61     33       0.000    
      2      1     59     38       0.000    
      3      2     59     43       0.000    
      4      2     57     43       0.000    
      5      2     54     36       0.000    
      6      2     52     38       0.000    
      7      2     49     48       0.000    
      8      2     45     36       0.000    
      9      2     44     38       0.000    
     10      1     43     40       0.000    
     11      2     43     49       0.000    
     12      2     40     39       0.000    
     13      3     38     43       0.000    
     14      1     37     38       0.000    
     15      2     31     47       0.000    
     16      2     27     41       0.000    

     16 WELLS

 BOUND. NO. LAYER   ROW   COL     STAGE      CONDUCTANCE         
 ----------------------------------------------------------------
      1      1      1      1      0.3710          0.6804E+06
      2      1      1      2      0.3728          0.6804E+06
      3      1      1      3      0.3752          0.6804E+06
      4      1      1      4      0.3788          0.6804E+06
      5      1      1      5      0.3831          0.6804E+06
      6      1      1      6      0.3866          0.6804E+06
      7      1      1      7      0.3899          0.6804E+06
      8      1      1      8      0.3923          0.6804E+06
      9      1      1      9      0.3929          0.6804E+06
     10      1      1     10      0.3920          0.6804E+06
     11      1      1     11      0.3898          0.6804E+06
     12      1      1     12      0.3858          0.6804E+06
     13      1      1     13      0.3804          0.6804E+06
     14      1      1     14      0.3745          0.6804E+06
     15      1      1     15      0.3653          0.6804E+06
     16      1      1     16      0.3536          0.6804E+06
     17      1      1     17      0.3377          0.6804E+06
     18      1      1     18      0.3210          0.6804E+06
     19      1      1     19      0.3060          0.6804E+06
     20      1      1     20      0.2933          0.6804E+06
     21      1      1     21      0.2859          0.6804E+06
     22      1      1     22      0.2825          0.6804E+06
     23      1      1     23      0.2793          0.6804E+06
     24      1      1     24      0.2771          0.6804E+06
     25      1      1     25      0.2757          0.6804E+06
     26      1      1     26      0.2760          0.6804E+06
     27      1      1     27      0.2781          0.6804E+06
     28      1      1     28      0.2828          0.6804E+06
     29      1      1     29      0.2895          0.6804E+06
     30      1      1     30      0.2965          0.6804E+06
     31      1      1     31      0.3052          0.6804E+06
     32      1      1     32      0.3127          0.6804E+06
     33      1      1     33      0.3202          0.6804E+06
     34      1      1     34      0.3261          0.6804E+06
     35      1      1     35      0.3301          0.6804E+06
     36      1      1     36      0.3340          0.6804E+06
     37      1      1     37      0.3365          0.6804E+06
     38      1      1     38      0.3374          0.6804E+06
     39      1      1     39      0.3370          0.6804E+06
     40      1      1     40      0.3368          0.6804E+06
     41      1      1     41      0.3368          0.6804E+06
     42      1      1     42      0.3373          0.6804E+06
     43      1      1     43      0.3383          0.6804E+06
     44      1      1     44      0.3403          0.6804E+06
     45      1      1     45      0.3423          0.6804E+06
     46      1      1     46      0.3432          0.6804E+06
     47      1      1     47      0.3432          0.6804E+06
     48      1      1     48      0.3427          0.6804E+06
     49      1      1     49      0.3409          0.6804E+06
     50      1      1     50      0.3379          0.6804E+06
     51      1      1     51      0.3343          0.6804E+06
     52      1      1     52      0.3286          0.6804E+06
     53      1      1     53      0.3224          0.6804E+06
     54      1      1     54      0.3148          0.6804E+06
     55      1      1     55      0.3072          0.6804E+06
     56      1      1     56      0.3003          0.6804E+06
     57      1      1     57      0.2926          0.6804E+06
     58      1      1     58      0.2852          0.6804E+06
     59      1      1     59      0.2786          0.6804E+06
     60      1      1     60      0.2703          0.6804E+06
     61      1      1     61      0.2632          0.6804E+06
     62      1      1     62      0.2554          0.6804E+06
     63      1      1     63      0.2480          0.6804E+06
     64      1      1     64      0.2423          0.6804E+06
     65      1      1     65      0.2365          0.6804E+06
     66      1      1     66      0.2312          0.6804E+06
     67      1      1     67      0.2269          0.6804E+06
     68      1      1     68      0.2222          0.6804E+06
     69      1      1     69      0.2181          0.6804E+06
     70      1      1     70      0.2135          0.6804E+06
     71      1      1     71      0.2088          0.6804E+06
     72      1      1     72      0.2045          0.6804E+06
     73      1      1     73      0.1995          0.6804E+06
     74      1      1     74      0.1936          0.6804E+06
     75      1      1     75      0.1881          0.6804E+06
     76      1      1     76      0.1818          0.6804E+06
     77      1      1     77      0.1766          0.6804E+06
     78      1      1     78      0.1703          0.6804E+06
     79      1      1     79      0.1635          0.6804E+06
     80      1      1     80      0.1576          0.6804E+06
     81      1      1     81      0.1510          0.6804E+06
     82      1      1     82      0.1439          0.6804E+06
     83      1      1     83      0.1376          0.6804E+06
     84      1      1     84      0.1302          0.6804E+06
     85      1      1     85      0.1231          0.6804E+06
     86      1      1     86      0.1147          0.6804E+06
     87      1      1     87      0.1067          0.6804E+06
     88      1      1     88      0.9976E-01      0.6804E+06
     89      1      1     89      0.9168E-01      0.6804E+06
     90      1      1     90      0.8364E-01      0.6804E+06
     91      1      1     91      0.7626E-01      0.6804E+06
     92      1      1     92      0.6793E-01      0.6804E+06
     93      1      1     93      0.6125E-01      0.6804E+06
     94      1      1     94      0.5478E-01      0.6804E+06
     95      1      1     95      0.4816E-01      0.6804E+06
     96      1      1     96      0.4179E-01      0.6804E+06
     97      1      1     97      0.3279E-01      0.6804E+06
     98      1      1     98      0.2161E-01      0.6804E+06
     99      1      1     99      0.7204E-02      0.6804E+06
    100      1      1    100       0.000          0.6804E+06
    101      1      2      1      0.3913          0.6804E+06
    102      1      2      2      0.3922          0.6804E+06
    103      1      2      3      0.3938          0.6804E+06
    104      1      2      4      0.3965          0.6804E+06
    105      1      2      5      0.3999          0.6804E+06
    106      1      2      6      0.4025          0.6804E+06
    107      1      2      7      0.4047          0.6804E+06
    108      1      2      8      0.4059          0.6804E+06
    109      1      2      9      0.4053          0.6804E+06
    110      1      2     10      0.4027          0.6804E+06
    111      1      2     11      0.3992          0.6804E+06
    112      1      2     12      0.3938          0.6804E+06
    113      1      2     13      0.3871          0.6804E+06
    114      1      2     14      0.3803          0.6804E+06
    115      1      2     15      0.3704          0.6804E+06
    116      1      2     16      0.3595          0.6804E+06
    117      1      2     17      0.3453          0.6804E+06
    118      1      2     18      0.3303          0.6804E+06
    119      1      2     19      0.3173          0.6804E+06
    120      1      2     20      0.3050          0.6804E+06
    121      1      2     21      0.2960          0.6804E+06
    122      1      2     22      0.2899          0.6804E+06
    123      1      2     23      0.2837          0.6804E+06
    124      1      2     24      0.2789          0.6804E+06
    125      1      2     25      0.2743          0.6804E+06
    126      1      2     26      0.2719          0.6804E+06
    127      1      2     27      0.2726          0.6804E+06
    128      1      2     28      0.2766          0.6804E+06
    129      1      2     29      0.2834          0.6804E+06
    130      1      2     30      0.2910          0.6804E+06
    131      1      2     31      0.3009          0.6804E+06
    132      1      2     32      0.3095          0.6804E+06
    133      1      2     33      0.3174          0.6804E+06
    134      1      2     34      0.3222          0.6804E+06
    135      1      2     35      0.3237          0.6804E+06
    136      1      2     36      0.3243          0.6804E+06
    137      1      2     37      0.3245          0.6804E+06
    138      1      2     38      0.3251          0.6804E+06
    139      1      2     39      0.3265          0.6804E+06
    140      1      2     40      0.3272          0.6804E+06
    141      1      2     41      0.3274          0.6804E+06
    142      1      2     42      0.3280          0.6804E+06
    143      1      2     43      0.3294          0.6804E+06
    144      1      2     44      0.3322          0.6804E+06
    145      1      2     45      0.3351          0.6804E+06
    146      1      2     46      0.3370          0.6804E+06
    147      1      2     47      0.3380          0.6804E+06
    148      1      2     48      0.3379          0.6804E+06
    149      1      2     49      0.3359          0.6804E+06
    150      1      2     50      0.3320          0.6804E+06
    151      1      2     51      0.3275          0.6804E+06
    152      1      2     52      0.3212          0.6804E+06
    153      1      2     53      0.3148          0.6804E+06
    154      1      2     54      0.3071          0.6804E+06
    155      1      2     55      0.2993          0.6804E+06
    156      1      2     56      0.2923          0.6804E+06
    157      1      2     57      0.2846          0.6804E+06
    158      1      2     58      0.2772          0.6804E+06
    159      1      2     59      0.2704          0.6804E+06
    160      1      2     60      0.2623          0.6804E+06
    161      1      2     61      0.2555          0.6804E+06
    162      1      2     62      0.2482          0.6804E+06
    163      1      2     63      0.2412          0.6804E+06
    164      1      2     64      0.2355          0.6804E+06
    165      1      2     65      0.2296          0.6804E+06
    166      1      2     66      0.2239          0.6804E+06
    167      1      2     67      0.2193          0.6804E+06
    168      1      2     68      0.2143          0.6804E+06
    169      1      2     69      0.2102          0.6804E+06
    170      1      2     70      0.2056          0.6804E+06
    171      1      2     71      0.2012          0.6804E+06
    172      1      2     72      0.1974          0.6804E+06
    173      1      2     73      0.1926          0.6804E+06
    174      1      2     74      0.1874          0.6804E+06
    175      1      2     75      0.1824          0.6804E+06
    176      1      2     76      0.1762          0.6804E+06
    177      1      2     77      0.1705          0.6804E+06
    178      1      2     78      0.1635          0.6804E+06
    179      1      2     79      0.1561          0.6804E+06
    180      1      2     80      0.1499          0.6804E+06
    181      1      2     81      0.1434          0.6804E+06
    182      1      2     82      0.1360          0.6804E+06
    183      1      2     83      0.1293          0.6804E+06
    184      1      2     84      0.1214          0.6804E+06
    185      1      2     85      0.1141          0.6804E+06
    186      1      2     86      0.1061          0.6804E+06
    187      1      2     87      0.9897E-01      0.6804E+06
    188      1      2     88      0.9295E-01      0.6804E+06
    189      1      2     89      0.8604E-01      0.6804E+06
    190      1      2     90      0.7935E-01      0.6804E+06
    191      1      2     91      0.7276E-01      0.6804E+06
    192      1      2     92      0.6489E-01      0.6804E+06
    193      1      2     93      0.5824E-01      0.6804E+06
    194      1      2     94      0.5107E-01      0.6804E+06
    195      1      2     95      0.4232E-01      0.6804E+06
    196      1      2     96      0.3331E-01      0.6804E+06
    197      1      2     97      0.2064E-01      0.6804E+06
    198      1      2     98      0.8544E-02      0.6804E+06
    199      1      2     99       0.000          0.6804E+06
    200      1      2    100     -0.5911E-01      0.6804E+06
    201      1      3      1      0.4115          0.6804E+06
    202      1      3      2      0.4113          0.6804E+06
    203      1      3      3      0.4120          0.6804E+06
    204      1      3      4      0.4138          0.6804E+06
    205      1      3      5      0.4163          0.6804E+06
    206      1      3      6      0.4181          0.6804E+06
    207      1      3      7      0.4195          0.6804E+06
    208      1      3      8      0.4196          0.6804E+06
    209      1      3      9      0.4177          0.6804E+06
    210      1      3     10      0.4133          0.6804E+06
    211      1      3     11      0.4082          0.6804E+06
    212      1      3     12      0.4012          0.6804E+06
    213      1      3     13      0.3932          0.6804E+06
    214      1      3     14      0.3854          0.6804E+06
    215      1      3     15      0.3752          0.6804E+06
    216      1      3     16      0.3652          0.6804E+06
    217      1      3     17      0.3530          0.6804E+06
    218      1      3     18      0.3404          0.6804E+06
    219      1      3     19      0.3296          0.6804E+06
    220      1      3     20      0.3182          0.6804E+06
    221      1      3     21      0.3077          0.6804E+06
    222      1      3     22      0.2987          0.6804E+06
    223      1      3     23      0.2890          0.6804E+06
    224      1      3     24      0.2810          0.6804E+06
    225      1      3     25      0.2728          0.6804E+06
    226      1      3     26      0.2669          0.6804E+06
    227      1      3     27      0.2660          0.6804E+06
    228      1      3     28      0.2689          0.6804E+06
    229      1      3     29      0.2754          0.6804E+06
    230      1      3     30      0.2834          0.6804E+06
    231      1      3     31      0.2948          0.6804E+06
    232      1      3     32      0.3052          0.6804E+06
    233      1      3     33      0.3141          0.6804E+06
    234      1      3     34      0.3172          0.6804E+06
    235      1      3     35      0.3143          0.6804E+06
    236      1      3     36      0.3098          0.6804E+06
    237      1      3     37      0.3063          0.6804E+06
    238      1      3     38      0.3061          0.6804E+06
    239      1      3     39      0.3091          0.6804E+06
    240      1      3     40      0.3112          0.6804E+06
    241      1      3     41      0.3127          0.6804E+06
    242      1      3     42      0.3144          0.6804E+06
    243      1      3     43      0.3167          0.6804E+06
    244      1      3     44      0.3204          0.6804E+06
    245      1      3     45      0.3245          0.6804E+06
    246      1      3     46      0.3277          0.6804E+06
    247      1      3     47      0.3305          0.6804E+06
    248      1      3     48      0.3315          0.6804E+06
    249      1      3     49      0.3295          0.6804E+06
    250      1      3     50      0.3247          0.6804E+06
    251      1      3     51      0.3192          0.6804E+06
    252      1      3     52      0.3122          0.6804E+06
    253      1      3     53      0.3055          0.6804E+06
    254      1      3     54      0.2977          0.6804E+06
    255      1      3     55      0.2900          0.6804E+06
    256      1      3     56      0.2831          0.6804E+06
    257      1      3     57      0.2759          0.6804E+06
    258      1      3     58      0.2683          0.6804E+06
    259      1      3     59      0.2612          0.6804E+06
    260      1      3     60      0.2535          0.6804E+06
    261      1      3     61      0.2472          0.6804E+06
    262      1      3     62      0.2403          0.6804E+06
    263      1      3     63      0.2336          0.6804E+06
    264      1      3     64      0.2280          0.6804E+06
    265      1      3     65      0.2220          0.6804E+06
    266      1      3     66      0.2162          0.6804E+06
    267      1      3     67      0.2112          0.6804E+06
    268      1      3     68      0.2060          0.6804E+06
    269      1      3     69      0.2019          0.6804E+06
    270      1      3     70      0.1975          0.6804E+06
    271      1      3     71      0.1934          0.6804E+06
    272      1      3     72      0.1897          0.6804E+06
    273      1      3     73      0.1853          0.6804E+06
    274      1      3     74      0.1810          0.6804E+06
    275      1      3     75      0.1767          0.6804E+06
    276      1      3     76      0.1706          0.6804E+06
    277      1      3     77      0.1643          0.6804E+06
    278      1      3     78      0.1565          0.6804E+06
    279      1      3     79      0.1488          0.6804E+06
    280      1      3     80      0.1425          0.6804E+06
    281      1      3     81      0.1357          0.6804E+06
    282      1      3     82      0.1279          0.6804E+06
    283      1      3     83      0.1208          0.6804E+06
    284      1      3     84      0.1125          0.6804E+06
    285      1      3     85      0.1051          0.6804E+06
    286      1      3     86      0.9746E-01      0.6804E+06
    287      1      3     87      0.9132E-01      0.6804E+06
    288      1      3     88      0.8641E-01      0.6804E+06
    289      1      3     89      0.8056E-01      0.6804E+06
    290      1      3     90      0.7421E-01      0.6804E+06
    291      1      3     91      0.6800E-01      0.6804E+06
    292      1      3     92      0.6032E-01      0.6804E+06
    293      1      3     93      0.5337E-01      0.6804E+06
    294      1      3     94      0.4518E-01      0.6804E+06
    295      1      3     95      0.3411E-01      0.6804E+06
    296      1      3     96      0.2197E-01      0.6804E+06
    297      1      3     97      0.8253E-02      0.6804E+06
    298      1      3     98       0.000          0.6804E+06
    299      1      3     99     -0.5216E-01      0.6804E+06
    300      1      3    100     -0.8953E-01      0.6804E+06
    301      1      4      1      0.4282          0.6804E+06
    302      1      4      2      0.4272          0.6804E+06
    303      1      4      3      0.4272          0.6804E+06
    304      1      4      4      0.4282          0.6804E+06
    305      1      4      5      0.4300          0.6804E+06
    306      1      4      6      0.4313          0.6804E+06
    307      1      4      7      0.4321          0.6804E+06
    308      1      4      8      0.4313          0.6804E+06
    309      1      4      9      0.4281          0.6804E+06
    310      1      4     10      0.4220          0.6804E+06
    311      1      4     11      0.4155          0.6804E+06
    312      1      4     12      0.4071          0.6804E+06
    313      1      4     13      0.3978          0.6804E+06
    314      1      4     14      0.3892          0.6804E+06
    315      1      4     15      0.3790          0.6804E+06
    316      1      4     16      0.3698          0.6804E+06
    317      1      4     17      0.3590          0.6804E+06
    318      1      4     18      0.3485          0.6804E+06
    319      1      4     19      0.3396          0.6804E+06
    320      1      4     20      0.3291          0.6804E+06
    321      1      4     21      0.3177          0.6804E+06
    322      1      4     22      0.3063          0.6804E+06
    323      1      4     23      0.2937          0.6804E+06
    324      1      4     24      0.2832          0.6804E+06
    325      1      4     25      0.2722          0.6804E+06
    326      1      4     26      0.2635          0.6804E+06
    327      1      4     27      0.2601          0.6804E+06
    328      1      4     28      0.2609          0.6804E+06
    329      1      4     29      0.2663          0.6804E+06
    330      1      4     30      0.2744          0.6804E+06
    331      1      4     31      0.2869          0.6804E+06
    332      1      4     32      0.2993          0.6804E+06
    333      1      4     33      0.3096          0.6804E+06
    334      1      4     34      0.3110          0.6804E+06
    335      1      4     35      0.3032          0.6804E+06
    336      1      4     36      0.2932          0.6804E+06
    337      1      4     37      0.2859          0.6804E+06
    338      1      4     38      0.2843          0.6804E+06
    339      1      4     39      0.2885          0.6804E+06
    340      1      4     40      0.2922          0.6804E+06
    341      1      4     41      0.2958          0.6804E+06
    342      1      4     42      0.2994          0.6804E+06
    343      1      4     43      0.3028          0.6804E+06
    344      1      4     44      0.3075          0.6804E+06
    345      1      4     45      0.3127          0.6804E+06
    346      1      4     46      0.3173          0.6804E+06
    347      1      4     47      0.3220          0.6804E+06
    348      1      4     48      0.3246          0.6804E+06
    349      1      4     49      0.3225          0.6804E+06
    350      1      4     50      0.3165          0.6804E+06
    351      1      4     51      0.3102          0.6804E+06
    352      1      4     52      0.3029          0.6804E+06
    353      1      4     53      0.2960          0.6804E+06
    354      1      4     54      0.2882          0.6804E+06
    355      1      4     55      0.2807          0.6804E+06
    356      1      4     56      0.2739          0.6804E+06
    357      1      4     57      0.2670          0.6804E+06
    358      1      4     58      0.2597          0.6804E+06
    359      1      4     59      0.2527          0.6804E+06
    360      1      4     60      0.2454          0.6804E+06
    361      1      4     61      0.2396          0.6804E+06
    362      1      4     62      0.2330          0.6804E+06
    363      1      4     63      0.2264          0.6804E+06
    364      1      4     64      0.2209          0.6804E+06
    365      1      4     65      0.2149          0.6804E+06
    366      1      4     66      0.2088          0.6804E+06
    367      1      4     67      0.2037          0.6804E+06
    368      1      4     68      0.1984          0.6804E+06
    369      1      4     69      0.1942          0.6804E+06
    370      1      4     70      0.1899          0.6804E+06
    371      1      4     71      0.1859          0.6804E+06
    372      1      4     72      0.1821          0.6804E+06
    373      1      4     73      0.1782          0.6804E+06
    374      1      4     74      0.1748          0.6804E+06
    375      1      4     75      0.1712          0.6804E+06
    376      1      4     76      0.1655          0.6804E+06
    377      1      4     77      0.1584          0.6804E+06
    378      1      4     78      0.1499          0.6804E+06
    379      1      4     79      0.1419          0.6804E+06
    380      1      4     80      0.1356          0.6804E+06
    381      1      4     81      0.1282          0.6804E+06
    382      1      4     82      0.1203          0.6804E+06
    383      1      4     83      0.1132          0.6804E+06
    384      1      4     84      0.1050          0.6804E+06
    385      1      4     85      0.9767E-01      0.6804E+06
    386      1      4     86      0.9029E-01      0.6804E+06
    387      1      4     87      0.8503E-01      0.6804E+06
    388      1      4     88      0.8086E-01      0.6804E+06
    389      1      4     89      0.7507E-01      0.6804E+06
    390      1      4     90      0.6880E-01      0.6804E+06
    391      1      4     91      0.6320E-01      0.6804E+06
    392      1      4     92      0.5551E-01      0.6804E+06
    393      1      4     93      0.4725E-01      0.6804E+06
    394      1      4     94      0.3691E-01      0.6804E+06
    395      1      4     95      0.2342E-01      0.6804E+06
    396      1      4     96      0.1036E-01      0.6804E+06
    397      1      4     97       0.000          0.6804E+06
    398      1      4     98     -0.4253E-01      0.6804E+06
    399      1      4     99     -0.8103E-01      0.6804E+06
    400      1      4    100     -0.1109          0.6804E+06
    401      1      5      1      0.4453          0.6804E+06
    402      1      5      2      0.4436          0.6804E+06
    403      1      5      3      0.4430          0.6804E+06
    404      1      5      4      0.4434          0.6804E+06
    405      1      5      5      0.4446          0.6804E+06
    406      1      5      6      0.4452          0.6804E+06
    407      1      5      7      0.4452          0.6804E+06
    408      1      5      8      0.4432          0.6804E+06
    409      1      5      9      0.4387          0.6804E+06
    410      1      5     10      0.4308          0.6804E+06
    411      1      5     11      0.4229          0.6804E+06
    412      1      5     12      0.4129          0.6804E+06
    413      1      5     13      0.4023          0.6804E+06
    414      1      5     14      0.3928          0.6804E+06
    415      1      5     15      0.3826          0.6804E+06
    416      1      5     16      0.3740          0.6804E+06
    417      1      5     17      0.3645          0.6804E+06
    418      1      5     18      0.3556          0.6804E+06
    419      1      5     19      0.3482          0.6804E+06
    420      1      5     20      0.3386          0.6804E+06
    421      1      5     21      0.3264          0.6804E+06
    422      1      5     22      0.3132          0.6804E+06
    423      1      5     23      0.2982          0.6804E+06
    424      1      5     24      0.2856          0.6804E+06
    425      1      5     25      0.2722          0.6804E+06
    426      1      5     26      0.2606          0.6804E+06
    427      1      5     27      0.2535          0.6804E+06
    428      1      5     28      0.2501          0.6804E+06
    429      1      5     29      0.2527          0.6804E+06
    430      1      5     30      0.2603          0.6804E+06
    431      1      5     31      0.2733          0.6804E+06
    432      1      5     32      0.2867          0.6804E+06
    433      1      5     33      0.2980          0.6804E+06
    434      1      5     34      0.2977          0.6804E+06
    435      1      5     35      0.2846          0.6804E+06
    436      1      5     36      0.2692          0.6804E+06
    437      1      5     37      0.2578          0.6804E+06
    438      1      5     38      0.2544          0.6804E+06
    439      1      5     39      0.2603          0.6804E+06
    440      1      5     40      0.2662          0.6804E+06
    441      1      5     41      0.2728          0.6804E+06
    442      1      5     42      0.2792          0.6804E+06
    443      1      5     43      0.2844          0.6804E+06
    444      1      5     44      0.2903          0.6804E+06
    445      1      5     45      0.2966          0.6804E+06
    446      1      5     46      0.3023          0.6804E+06
    447      1      5     47      0.3086          0.6804E+06
    448      1      5     48      0.3128          0.6804E+06
    449      1      5     49      0.3109          0.6804E+06
    450      1      5     50      0.3040          0.6804E+06
    451      1      5     51      0.2975          0.6804E+06
    452      1      5     52      0.2902          0.6804E+06
    453      1      5     53      0.2835          0.6804E+06
    454      1      5     54      0.2760          0.6804E+06
    455      1      5     55      0.2686          0.6804E+06
    456      1      5     56      0.2622          0.6804E+06
    457      1      5     57      0.2559          0.6804E+06
    458      1      5     58      0.2489          0.6804E+06
    459      1      5     59      0.2421          0.6804E+06
    460      1      5     60      0.2355          0.6804E+06
    461      1      5     61      0.2301          0.6804E+06
    462      1      5     62      0.2240          0.6804E+06
    463      1      5     63      0.2177          0.6804E+06
    464      1      5     64      0.2123          0.6804E+06
    465      1      5     65      0.2062          0.6804E+06
    466      1      5     66      0.1997          0.6804E+06
    467      1      5     67      0.1943          0.6804E+06
    468      1      5     68      0.1890          0.6804E+06
    469      1      5     69      0.1849          0.6804E+06
    470      1      5     70      0.1802          0.6804E+06
    471      1      5     71      0.1760          0.6804E+06
    472      1      5     72      0.1725          0.6804E+06
    473      1      5     73      0.1692          0.6804E+06
    474      1      5     74      0.1664          0.6804E+06
    475      1      5     75      0.1635          0.6804E+06
    476      1      5     76      0.1581          0.6804E+06
    477      1      5     77      0.1502          0.6804E+06
    478      1      5     78      0.1412          0.6804E+06
    479      1      5     79      0.1330          0.6804E+06
    480      1      5     80      0.1265          0.6804E+06
    481      1      5     81      0.1188          0.6804E+06
    482      1      5     82      0.1113          0.6804E+06
    483      1      5     83      0.1048          0.6804E+06
    484      1      5     84      0.9716E-01      0.6804E+06
    485      1      5     85      0.9037E-01      0.6804E+06
    486      1      5     86      0.8347E-01      0.6804E+06
    487      1      5     87      0.7887E-01      0.6804E+06
    488      1      5     88      0.7524E-01      0.6804E+06
    489      1      5     89      0.6925E-01      0.6804E+06
    490      1      5     90      0.6233E-01      0.6804E+06
    491      1      5     91      0.5570E-01      0.6804E+06
    492      1      5     92      0.4648E-01      0.6804E+06
    493      1      5     93      0.3665E-01      0.6804E+06
    494      1      5     94      0.2376E-01      0.6804E+06
    495      1      5     95      0.8694E-02      0.6804E+06
    496      1      5     96       0.000          0.6804E+06
    497      1      5     97     -0.4517E-01      0.6804E+06
    498      1      5     98     -0.7794E-01      0.6804E+06
    499      1      5     99     -0.1048          0.6804E+06
    500      1      5    100     -0.1273          0.6804E+06
    501      1      6      1      0.4592          0.6804E+06
    502      1      6      2      0.4575          0.6804E+06
    503      1      6      3      0.4568          0.6804E+06
    504      1      6      4      0.4569          0.6804E+06
    505      1      6      5      0.4576          0.6804E+06
    506      1      6      6      0.4576          0.6804E+06
    507      1      6      7      0.4564          0.6804E+06
    508      1      6      8      0.4529          0.6804E+06
    509      1      6      9      0.4471          0.6804E+06
    510      1      6     10      0.4379          0.6804E+06
    511      1      6     11      0.4288          0.6804E+06
    512      1      6     12      0.4175          0.6804E+06
    513      1      6     13      0.4057          0.6804E+06
    514      1      6     14      0.3954          0.6804E+06
    515      1      6     15      0.3848          0.6804E+06
    516      1      6     16      0.3764          0.6804E+06
    517      1      6     17      0.3675          0.6804E+06
    518      1      6     18      0.3596          0.6804E+06
    519      1      6     19      0.3529          0.6804E+06
    520      1      6     20      0.3437          0.6804E+06
    521      1      6     21      0.3313          0.6804E+06
    522      1      6     22      0.3174          0.6804E+06
    523      1      6     23      0.3012          0.6804E+06
    524      1      6     24      0.2873          0.6804E+06
    525      1      6     25      0.2721          0.6804E+06
    526      1      6     26      0.2579          0.6804E+06
    527      1      6     27      0.2468          0.6804E+06
    528      1      6     28      0.2375          0.6804E+06
    529      1      6     29      0.2358          0.6804E+06
    530      1      6     30      0.2433          0.6804E+06
    531      1      6     31      0.2552          0.6804E+06
    532      1      6     32      0.2661          0.6804E+06
    533      1      6     33      0.2736          0.6804E+06
    534      1      6     34      0.2703          0.6804E+06
    535      1      6     35      0.2579          0.6804E+06
    536      1      6     36      0.2425          0.6804E+06
    537      1      6     37      0.2308          0.6804E+06
    538      1      6     38      0.2276          0.6804E+06
    539      1      6     39      0.2336          0.6804E+06
    540      1      6     40      0.2408          0.6804E+06
    541      1      6     41      0.2494          0.6804E+06
    542      1      6     42      0.2578          0.6804E+06
    543      1      6     43      0.2642          0.6804E+06
    544      1      6     44      0.2710          0.6804E+06
    545      1      6     45      0.2777          0.6804E+06
    546      1      6     46      0.2835          0.6804E+06
    547      1      6     47      0.2896          0.6804E+06
    548      1      6     48      0.2936          0.6804E+06
    549      1      6     49      0.2927          0.6804E+06
    550      1      6     50      0.2871          0.6804E+06
    551      1      6     51      0.2816          0.6804E+06
    552      1      6     52      0.2751          0.6804E+06
    553      1      6     53      0.2692          0.6804E+06
    554      1      6     54      0.2623          0.6804E+06
    555      1      6     55      0.2554          0.6804E+06
    556      1      6     56      0.2499          0.6804E+06
    557      1      6     57      0.2436          0.6804E+06
    558      1      6     58      0.2368          0.6804E+06
    559      1      6     59      0.2306          0.6804E+06
    560      1      6     60      0.2248          0.6804E+06
    561      1      6     61      0.2198          0.6804E+06
    562      1      6     62      0.2142          0.6804E+06
    563      1      6     63      0.2083          0.6804E+06
    564      1      6     64      0.2030          0.6804E+06
    565      1      6     65      0.1966          0.6804E+06
    566      1      6     66      0.1899          0.6804E+06
    567      1      6     67      0.1844          0.6804E+06
    568      1      6     68      0.1791          0.6804E+06
    569      1      6     69      0.1746          0.6804E+06
    570      1      6     70      0.1696          0.6804E+06
    571      1      6     71      0.1653          0.6804E+06
    572      1      6     72      0.1621          0.6804E+06
    573      1      6     73      0.1586          0.6804E+06
    574      1      6     74      0.1553          0.6804E+06
    575      1      6     75      0.1518          0.6804E+06
    576      1      6     76      0.1462          0.6804E+06
    577      1      6     77      0.1390          0.6804E+06
    578      1      6     78      0.1307          0.6804E+06
    579      1      6     79      0.1224          0.6804E+06
    580      1      6     80      0.1156          0.6804E+06
    581      1      6     81      0.1086          0.6804E+06
    582      1      6     82      0.1021          0.6804E+06
    583      1      6     83      0.9642E-01      0.6804E+06
    584      1      6     84      0.8988E-01      0.6804E+06
    585      1      6     85      0.8392E-01      0.6804E+06
    586      1      6     86      0.7780E-01      0.6804E+06
    587      1      6     87      0.7317E-01      0.6804E+06
    588      1      6     88      0.6907E-01      0.6804E+06
    589      1      6     89      0.6223E-01      0.6804E+06
    590      1      6     90      0.5410E-01      0.6804E+06
    591      1      6     91      0.4560E-01      0.6804E+06
    592      1      6     92      0.3384E-01      0.6804E+06
    593      1      6     93      0.2190E-01      0.6804E+06
    594      1      6     94      0.7307E-02      0.6804E+06
    595      1      6     95       0.000          0.6804E+06
    596      1      6     96     -0.4403E-01      0.6804E+06
    597      1      6     97     -0.7934E-01      0.6804E+06
    598      1      6     98     -0.1005          0.6804E+06
    599      1      6     99     -0.1220          0.6804E+06
    600      1      6    100     -0.1407          0.6804E+06
    601      1      7      1      0.4692          0.6804E+06
    602      1      7      2      0.4678          0.6804E+06
    603      1      7      3      0.4673          0.6804E+06
    604      1      7      4      0.4673          0.6804E+06
    605      1      7      5      0.4678          0.6804E+06
    606      1      7      6      0.4675          0.6804E+06
    607      1      7      7      0.4654          0.6804E+06
    608      1      7      8      0.4607          0.6804E+06
    609      1      7      9      0.4535          0.6804E+06
    610      1      7     10      0.4428          0.6804E+06
    611      1      7     11      0.4324          0.6804E+06
    612      1      7     12      0.4200          0.6804E+06
    613      1      7     13      0.4075          0.6804E+06
    614      1      7     14      0.3967          0.6804E+06
    615      1      7     15      0.3853          0.6804E+06
    616      1      7     16      0.3763          0.6804E+06
    617      1      7     17      0.3674          0.6804E+06
    618      1      7     18      0.3599          0.6804E+06
    619      1      7     19      0.3536          0.6804E+06
    620      1      7     20      0.3446          0.6804E+06
    621      1      7     21      0.3322          0.6804E+06
    622      1      7     22      0.3185          0.6804E+06
    623      1      7     23      0.3020          0.6804E+06
    624      1      7     24      0.2876          0.6804E+06
    625      1      7     25      0.2716          0.6804E+06
    626      1      7     26      0.2556          0.6804E+06
    627      1      7     27      0.2417          0.6804E+06
    628      1      7     28      0.2279          0.6804E+06
    629      1      7     29      0.2224          0.6804E+06
    630      1      7     30      0.2290          0.6804E+06
    631      1      7     31      0.2387          0.6804E+06
    632      1      7     32      0.2458          0.6804E+06
    633      1      7     33      0.2490          0.6804E+06
    634      1      7     34      0.2435          0.6804E+06
    635      1      7     35      0.2324          0.6804E+06
    636      1      7     36      0.2182          0.6804E+06
    637      1      7     37      0.2076          0.6804E+06
    638      1      7     38      0.2055          0.6804E+06
    639      1      7     39      0.2120          0.6804E+06
    640      1      7     40      0.2202          0.6804E+06
    641      1      7     41      0.2302          0.6804E+06
    642      1      7     42      0.2396          0.6804E+06
    643      1      7     43      0.2465          0.6804E+06
    644      1      7     44      0.2532          0.6804E+06
    645      1      7     45      0.2596          0.6804E+06
    646      1      7     46      0.2646          0.6804E+06
    647      1      7     47      0.2694          0.6804E+06
    648      1      7     48      0.2724          0.6804E+06
    649      1      7     49      0.2725          0.6804E+06
    650      1      7     50      0.2693          0.6804E+06
    651      1      7     51      0.2655          0.6804E+06
    652      1      7     52      0.2603          0.6804E+06
    653      1      7     53      0.2552          0.6804E+06
    654      1      7     54      0.2492          0.6804E+06
    655      1      7     55      0.2433          0.6804E+06
    656      1      7     56      0.2387          0.6804E+06
    657      1      7     57      0.2320          0.6804E+06
    658      1      7     58      0.2252          0.6804E+06
    659      1      7     59      0.2201          0.6804E+06
    660      1      7     60      0.2147          0.6804E+06
    661      1      7     61      0.2102          0.6804E+06
    662      1      7     62      0.2050          0.6804E+06
    663      1      7     63      0.1995          0.6804E+06
    664      1      7     64      0.1944          0.6804E+06
    665      1      7     65      0.1876          0.6804E+06
    666      1      7     66      0.1807          0.6804E+06
    667      1      7     67      0.1752          0.6804E+06
    668      1      7     68      0.1696          0.6804E+06
    669      1      7     69      0.1648          0.6804E+06
    670      1      7     70      0.1599          0.6804E+06
    671      1      7     71      0.1556          0.6804E+06
    672      1      7     72      0.1519          0.6804E+06
    673      1      7     73      0.1477          0.6804E+06
    674      1      7     74      0.1436          0.6804E+06
    675      1      7     75      0.1396          0.6804E+06
    676      1      7     76      0.1340          0.6804E+06
    677      1      7     77      0.1278          0.6804E+06
    678      1      7     78      0.1201          0.6804E+06
    679      1      7     79      0.1119          0.6804E+06
    680      1      7     80      0.1052          0.6804E+06
    681      1      7     81      0.9924E-01      0.6804E+06
    682      1      7     82      0.9380E-01      0.6804E+06
    683      1      7     83      0.8900E-01      0.6804E+06
    684      1      7     84      0.8319E-01      0.6804E+06
    685      1      7     85      0.7770E-01      0.6804E+06
    686      1      7     86      0.7259E-01      0.6804E+06
    687      1      7     87      0.6745E-01      0.6804E+06
    688      1      7     88      0.6189E-01      0.6804E+06
    689      1      7     89      0.5383E-01      0.6804E+06
    690      1      7     90      0.4454E-01      0.6804E+06
    691      1      7     91      0.3432E-01      0.6804E+06
    692      1      7     92      0.1993E-01      0.6804E+06
    693      1      7     93      0.6895E-02      0.6804E+06
    694      1      7     94       0.000          0.6804E+06
    695      1      7     95       0.000          0.6804E+06
    696      1      7     96     -0.7501E-01      0.6804E+06
    697      1      7     97     -0.9975E-01      0.6804E+06
    698      1      7     98     -0.1192          0.6804E+06
    699      1      7     99     -0.1401          0.6804E+06
    700      1      7    100     -0.1727          0.6804E+06
    701      1      8      1      0.4782          0.6804E+06
    702      1      8      2      0.4776          0.6804E+06
    703      1      8      3      0.4773          0.6804E+06
    704      1      8      4      0.4775          0.6804E+06
    705      1      8      5      0.4779          0.6804E+06
    706      1      8      6      0.4775          0.6804E+06
    707      1      8      7      0.4750          0.6804E+06
    708      1      8      8      0.4691          0.6804E+06
    709      1      8      9      0.4599          0.6804E+06
    710      1      8     10      0.4463          0.6804E+06
    711      1      8     11      0.4339          0.6804E+06
    712      1      8     12      0.4201          0.6804E+06
    713      1      8     13      0.4072          0.6804E+06
    714      1      8     14      0.3957          0.6804E+06
    715      1      8     15      0.3828          0.6804E+06
    716      1      8     16      0.3726          0.6804E+06
    717      1      8     17      0.3634          0.6804E+06
    718      1      8     18      0.3565          0.6804E+06
    719      1      8     19      0.3515          0.6804E+06
    720      1      8     20      0.3437          0.6804E+06
    721      1      8     21      0.3314          0.6804E+06
    722      1      8     22      0.3171          0.6804E+06
    723      1      8     23      0.3002          0.6804E+06
    724      1      8     24      0.2859          0.6804E+06
    725      1      8     25      0.2702          0.6804E+06
    726      1      8     26      0.2537          0.6804E+06
    727      1      8     27      0.2385          0.6804E+06
    728      1      8     28      0.2238          0.6804E+06
    729      1      8     29      0.2161          0.6804E+06
    730      1      8     30      0.2177          0.6804E+06
    731      1      8     31      0.2223          0.6804E+06
    732      1      8     32      0.2251          0.6804E+06
    733      1      8     33      0.2242          0.6804E+06
    734      1      8     34      0.2165          0.6804E+06
    735      1      8     35      0.2050          0.6804E+06
    736      1      8     36      0.1907          0.6804E+06
    737      1      8     37      0.1806          0.6804E+06
    738      1      8     38      0.1804          0.6804E+06
    739      1      8     39      0.1894          0.6804E+06
    740      1      8     40      0.1993          0.6804E+06
    741      1      8     41      0.2107          0.6804E+06
    742      1      8     42      0.2206          0.6804E+06
    743      1      8     43      0.2273          0.6804E+06
    744      1      8     44      0.2332          0.6804E+06
    745      1      8     45      0.2384          0.6804E+06
    746      1      8     46      0.2423          0.6804E+06
    747      1      8     47      0.2454          0.6804E+06
    748      1      8     48      0.2477          0.6804E+06
    749      1      8     49      0.2489          0.6804E+06
    750      1      8     50      0.2478          0.6804E+06
    751      1      8     51      0.2458          0.6804E+06
    752      1      8     52      0.2425          0.6804E+06
    753      1      8     53      0.2386          0.6804E+06
    754      1      8     54      0.2335          0.6804E+06
    755      1      8     55      0.2283          0.6804E+06
    756      1      8     56      0.2247          0.6804E+06
    757      1      8     57      0.2183          0.6804E+06
    758      1      8     58      0.2117          0.6804E+06
    759      1      8     59      0.2076          0.6804E+06
    760      1      8     60      0.2026          0.6804E+06
    761      1      8     61      0.1985          0.6804E+06
    762      1      8     62      0.1937          0.6804E+06
    763      1      8     63      0.1886          0.6804E+06
    764      1      8     64      0.1836          0.6804E+06
    765      1      8     65      0.1765          0.6804E+06
    766      1      8     66      0.1693          0.6804E+06
    767      1      8     67      0.1637          0.6804E+06
    768      1      8     68      0.1579          0.6804E+06
    769      1      8     69      0.1530          0.6804E+06
    770      1      8     70      0.1482          0.6804E+06
    771      1      8     71      0.1438          0.6804E+06
    772      1      8     72      0.1393          0.6804E+06
    773      1      8     73      0.1341          0.6804E+06
    774      1      8     74      0.1293          0.6804E+06
    775      1      8     75      0.1250          0.6804E+06
    776      1      8     76      0.1197          0.6804E+06
    777      1      8     77      0.1147          0.6804E+06
    778      1      8     78      0.1079          0.6804E+06
    779      1      8     79      0.1000          0.6804E+06
    780      1      8     80      0.9346E-01      0.6804E+06
    781      1      8     81      0.8885E-01      0.6804E+06
    782      1      8     82      0.8443E-01      0.6804E+06
    783      1      8     83      0.8025E-01      0.6804E+06
    784      1      8     84      0.7495E-01      0.6804E+06
    785      1      8     85      0.6975E-01      0.6804E+06
    786      1      8     86      0.6418E-01      0.6804E+06
    787      1      8     87      0.5803E-01      0.6804E+06
    788      1      8     88      0.5140E-01      0.6804E+06
    789      1      8     89      0.4222E-01      0.6804E+06
    790      1      8     90      0.3136E-01      0.6804E+06
    791      1      8     91      0.1844E-01      0.6804E+06
    792      1      8     92      0.1865E-02      0.6804E+06
    793      1      8     93       0.000          0.6804E+06
    794      1      8     94       0.000          0.6804E+06
    795      1      8     95     -0.8038E-01      0.6804E+06
    796      1      8     96     -0.1007          0.6804E+06
    797      1      8     97     -0.1204          0.6804E+06
    798      1      8     98     -0.1363          0.6804E+06
    799      1      8     99     -0.1683          0.6804E+06
    800      1      8    100     -0.2581          0.6804E+06
    801      1      9      1      0.4846          0.6804E+06
    802      1      9      2      0.4845          0.6804E+06
    803      1      9      3      0.4845          0.6804E+06
    804      1      9      4      0.4848          0.6804E+06
    805      1      9      5      0.4851          0.6804E+06
    806      1      9      6      0.4846          0.6804E+06
    807      1      9      7      0.4824          0.6804E+06
    808      1      9      8      0.4759          0.6804E+06
    809      1      9      9      0.4639          0.6804E+06
    810      1      9     10      0.4469          0.6804E+06
    811      1      9     11      0.4321          0.6804E+06
    812      1      9     12      0.4168          0.6804E+06
    813      1      9     13      0.4038          0.6804E+06
    814      1      9     14      0.3913          0.6804E+06
    815      1      9     15      0.3767          0.6804E+06
    816      1      9     16      0.3652          0.6804E+06
    817      1      9     17      0.3556          0.6804E+06
    818      1      9     18      0.3493          0.6804E+06
    819      1      9     19      0.3456          0.6804E+06
    820      1      9     20      0.3394          0.6804E+06
    821      1      9     21      0.3271          0.6804E+06
    822      1      9     22      0.3120          0.6804E+06
    823      1      9     23      0.2950          0.6804E+06
    824      1      9     24      0.2811          0.6804E+06
    825      1      9     25      0.2665          0.6804E+06
    826      1      9     26      0.2508          0.6804E+06
    827      1      9     27      0.2357          0.6804E+06
    828      1      9     28      0.2211          0.6804E+06
    829      1      9     29      0.2124          0.6804E+06
    830      1      9     30      0.2106          0.6804E+06
    831      1      9     31      0.2111          0.6804E+06
    832      1      9     32      0.2110          0.6804E+06
    833      1      9     33      0.2077          0.6804E+06
    834      1      9     34      0.1986          0.6804E+06
    835      1      9     35      0.1858          0.6804E+06
    836      1      9     36      0.1688          0.6804E+06
    837      1      9     37      0.1574          0.6804E+06
    838      1      9     38      0.1597          0.6804E+06
    839      1      9     39      0.1728          0.6804E+06
    840      1      9     40      0.1848          0.6804E+06
    841      1      9     41      0.1968          0.6804E+06
    842      1      9     42      0.2062          0.6804E+06
    843      1      9     43      0.2122          0.6804E+06
    844      1      9     44      0.2168          0.6804E+06
    845      1      9     45      0.2205          0.6804E+06
    846      1      9     46      0.2230          0.6804E+06
    847      1      9     47      0.2249          0.6804E+06
    848      1      9     48      0.2270          0.6804E+06
    849      1      9     49      0.2288          0.6804E+06
    850      1      9     50      0.2291          0.6804E+06
    851      1      9     51      0.2283          0.6804E+06
    852      1      9     52      0.2264          0.6804E+06
    853      1      9     53      0.2234          0.6804E+06
    854      1      9     54      0.2192          0.6804E+06
    855      1      9     55      0.2146          0.6804E+06
    856      1      9     56      0.2109          0.6804E+06
    857      1      9     57      0.2055          0.6804E+06
    858      1      9     58      0.2002          0.6804E+06
    859      1      9     59      0.1961          0.6804E+06
    860      1      9     60      0.1912          0.6804E+06
    861      1      9     61      0.1874          0.6804E+06
    862      1      9     62      0.1830          0.6804E+06
    863      1      9     63      0.1778          0.6804E+06
    864      1      9     64      0.1726          0.6804E+06
    865      1      9     65      0.1657          0.6804E+06
    866      1      9     66      0.1583          0.6804E+06
    867      1      9     67      0.1525          0.6804E+06
    868      1      9     68      0.1473          0.6804E+06
    869      1      9     69      0.1425          0.6804E+06
    870      1      9     70      0.1372          0.6804E+06
    871      1      9     71      0.1322          0.6804E+06
    872      1      9     72      0.1275          0.6804E+06
    873      1      9     73      0.1217          0.6804E+06
    874      1      9     74      0.1164          0.6804E+06
    875      1      9     75      0.1121          0.6804E+06
    876      1      9     76      0.1077          0.6804E+06
    877      1      9     77      0.1036          0.6804E+06
    878      1      9     78      0.9777E-01      0.6804E+06
    879      1      9     79      0.9066E-01      0.6804E+06
    880      1      9     80      0.8461E-01      0.6804E+06
    881      1      9     81      0.8050E-01      0.6804E+06
    882      1      9     82      0.7650E-01      0.6804E+06
    883      1      9     83      0.7250E-01      0.6804E+06
    884      1      9     84      0.6717E-01      0.6804E+06
    885      1      9     85      0.6218E-01      0.6804E+06
    886      1      9     86      0.5563E-01      0.6804E+06
    887      1      9     87      0.4796E-01      0.6804E+06
    888      1      9     88      0.3998E-01      0.6804E+06
    889      1      9     89      0.2944E-01      0.6804E+06
    890      1      9     90      0.1802E-01      0.6804E+06
    891      1      9     91      0.3275E-02      0.6804E+06
    892      1      9     92       0.000          0.6804E+06
    893      1      9     93       0.000          0.6804E+06
    894      1      9     94     -0.7698E-01      0.6804E+06
    895      1      9     95     -0.1038          0.6804E+06
    896      1      9     96     -0.1242          0.6804E+06
    897      1      9     97     -0.1357          0.6804E+06
    898      1      9     98     -0.1550          0.6804E+06
    899      1      9     99     -0.2520          0.6804E+06
    900      1      9    100     -0.2207          0.6804E+06
    901      1     10      1      0.4910          0.6804E+06
    902      1     10      2      0.4909          0.6804E+06
    903      1     10      3      0.4909          0.6804E+06
    904      1     10      4      0.4908          0.6804E+06
    905      1     10      5      0.4905          0.6804E+06
    906      1     10      6      0.4898          0.6804E+06
    907      1     10      7      0.4881          0.6804E+06
    908      1     10      8      0.4815          0.6804E+06
    909      1     10      9      0.4647          0.6804E+06
    910      1     10     10      0.4426          0.6804E+06
    911      1     10     11      0.4242          0.6804E+06
    912      1     10     12      0.4065          0.6804E+06
    913      1     10     13      0.3934          0.6804E+06
    914      1     10     14      0.3794          0.6804E+06
    915      1     10     15      0.3629          0.6804E+06
    916      1     10     16      0.3505          0.6804E+06
    917      1     10     17      0.3411          0.6804E+06
    918      1     10     18      0.3353          0.6804E+06
    919      1     10     19      0.3326          0.6804E+06
    920      1     10     20      0.3275          0.6804E+06
    921      1     10     21      0.3154          0.6804E+06
    922      1     10     22      0.3006          0.6804E+06
    923      1     10     23      0.2842          0.6804E+06
    924      1     10     24      0.2709          0.6804E+06
    925      1     10     25      0.2572          0.6804E+06
    926      1     10     26      0.2427          0.6804E+06
    927      1     10     27      0.2289          0.6804E+06
    928      1     10     28      0.2155          0.6804E+06
    929      1     10     29      0.2067          0.6804E+06
    930      1     10     30      0.2028          0.6804E+06
    931      1     10     31      0.2007          0.6804E+06
    932      1     10     32      0.1990          0.6804E+06
    933      1     10     33      0.1952          0.6804E+06
    934      1     10     34      0.1867          0.6804E+06
    935      1     10     35      0.1746          0.6804E+06
    936      1     10     36      0.1550          0.6804E+06
    937      1     10     37      0.1413          0.6804E+06
    938      1     10     38      0.1471          0.6804E+06
    939      1     10     39      0.1633          0.6804E+06
    940      1     10     40      0.1758          0.6804E+06
    941      1     10     41      0.1863          0.6804E+06
    942      1     10     42      0.1935          0.6804E+06
    943      1     10     43      0.1976          0.6804E+06
    944      1     10     44      0.2002          0.6804E+06
    945      1     10     45      0.2017          0.6804E+06
    946      1     10     46      0.2024          0.6804E+06
    947      1     10     47      0.2028          0.6804E+06
    948      1     10     48      0.2048          0.6804E+06
    949      1     10     49      0.2073          0.6804E+06
    950      1     10     50      0.2087          0.6804E+06
    951      1     10     51      0.2090          0.6804E+06
    952      1     10     52      0.2079          0.6804E+06
    953      1     10     53      0.2058          0.6804E+06
    954      1     10     54      0.2026          0.6804E+06
    955      1     10     55      0.1986          0.6804E+06
    956      1     10     56      0.1948          0.6804E+06
    957      1     10     57      0.1904          0.6804E+06
    958      1     10     58      0.1862          0.6804E+06
    959      1     10     59      0.1821          0.6804E+06
    960      1     10     60      0.1775          0.6804E+06
    961      1     10     61      0.1740          0.6804E+06
    962      1     10     62      0.1699          0.6804E+06
    963      1     10     63      0.1649          0.6804E+06
    964      1     10     64      0.1595          0.6804E+06
    965      1     10     65      0.1526          0.6804E+06
    966      1     10     66      0.1451          0.6804E+06
    967      1     10     67      0.1389          0.6804E+06
    968      1     10     68      0.1335          0.6804E+06
    969      1     10     69      0.1289          0.6804E+06
    970      1     10     70      0.1239          0.6804E+06
    971      1     10     71      0.1190          0.6804E+06
    972      1     10     72      0.1141          0.6804E+06
    973      1     10     73      0.1077          0.6804E+06
    974      1     10     74      0.1018          0.6804E+06
    975      1     10     75      0.9769E-01      0.6804E+06
    976      1     10     76      0.9470E-01      0.6804E+06
    977      1     10     77      0.9187E-01      0.6804E+06
    978      1     10     78      0.8740E-01      0.6804E+06
    979      1     10     79      0.8168E-01      0.6804E+06
    980      1     10     80      0.7663E-01      0.6804E+06
    981      1     10     81      0.7193E-01      0.6804E+06
    982      1     10     82      0.6758E-01      0.6804E+06
    983      1     10     83      0.6340E-01      0.6804E+06
    984      1     10     84      0.5770E-01      0.6804E+06
    985      1     10     85      0.5233E-01      0.6804E+06
    986      1     10     86      0.4414E-01      0.6804E+06
    987      1     10     87      0.3412E-01      0.6804E+06
    988      1     10     88      0.2380E-01      0.6804E+06
    989      1     10     89      0.1137E-01      0.6804E+06
    990      1     10     90       0.000          0.6804E+06
    991      1     10     91       0.000          0.6804E+06
    992      1     10     92       0.000          0.6804E+06
    993      1     10     93     -0.8005E-01      0.6804E+06
    994      1     10     94     -0.1037          0.6804E+06
    995      1     10     95     -0.1303          0.6804E+06
    996      1     10     96     -0.1401          0.6804E+06
    997      1     10     97     -0.1600          0.6804E+06
    998      1     10     98     -0.2419          0.6804E+06
    999      1     10     99     -0.2095          0.6804E+06
   1000      1     10    100     -0.1550          0.6804E+06
   1001      1     11      1      0.4964          0.6804E+06
   1002      1     11      2      0.4960          0.6804E+06
   1003      1     11      3      0.4955          0.6804E+06
   1004      1     11      4      0.4946          0.6804E+06
   1005      1     11      5      0.4931          0.6804E+06
   1006      1     11      6      0.4907          0.6804E+06
   1007      1     11      7      0.4860          0.6804E+06
   1008      1     11      8      0.4755          0.6804E+06
   1009      1     11      9      0.4569          0.6804E+06
   1010      1     11     10      0.4316          0.6804E+06
   1011      1     11     11      0.4092          0.6804E+06
   1012      1     11     12      0.3863          0.6804E+06
   1013      1     11     13      0.3678          0.6804E+06
   1014      1     11     14      0.3528          0.6804E+06
   1015      1     11     15      0.3383          0.6804E+06
   1016      1     11     16      0.3288          0.6804E+06
   1017      1     11     17      0.3209          0.6804E+06
   1018      1     11     18      0.3155          0.6804E+06
   1019      1     11     19      0.3116          0.6804E+06
   1020      1     11     20      0.3054          0.6804E+06
   1021      1     11     21      0.2945          0.6804E+06
   1022      1     11     22      0.2823          0.6804E+06
   1023      1     11     23      0.2679          0.6804E+06
   1024      1     11     24      0.2554          0.6804E+06
   1025      1     11     25      0.2421          0.6804E+06
   1026      1     11     26      0.2289          0.6804E+06
   1027      1     11     27      0.2175          0.6804E+06
   1028      1     11     28      0.2064          0.6804E+06
   1029      1     11     29      0.1986          0.6804E+06
   1030      1     11     30      0.1943          0.6804E+06
   1031      1     11     31      0.1917          0.6804E+06
   1032      1     11     32      0.1902          0.6804E+06
   1033      1     11     33      0.1880          0.6804E+06
   1034      1     11     34      0.1833          0.6804E+06
   1035      1     11     35      0.1763          0.6804E+06
   1036      1     11     36      0.1644          0.6804E+06
   1037      1     11     37      0.1563          0.6804E+06
   1038      1     11     38      0.1601          0.6804E+06
   1039      1     11     39      0.1693          0.6804E+06
   1040      1     11     40      0.1763          0.6804E+06
   1041      1     11     41      0.1815          0.6804E+06
   1042      1     11     42      0.1845          0.6804E+06
   1043      1     11     43      0.1858          0.6804E+06
   1044      1     11     44      0.1860          0.6804E+06
   1045      1     11     45      0.1852          0.6804E+06
   1046      1     11     46      0.1835          0.6804E+06
   1047      1     11     47      0.1819          0.6804E+06
   1048      1     11     48      0.1839          0.6804E+06
   1049      1     11     49      0.1876          0.6804E+06
   1050      1     11     50      0.1900          0.6804E+06
   1051      1     11     51      0.1909          0.6804E+06
   1052      1     11     52      0.1907          0.6804E+06
   1053      1     11     53      0.1891          0.6804E+06
   1054      1     11     54      0.1861          0.6804E+06
   1055      1     11     55      0.1827          0.6804E+06
   1056      1     11     56      0.1796          0.6804E+06
   1057      1     11     57      0.1755          0.6804E+06
   1058      1     11     58      0.1713          0.6804E+06
   1059      1     11     59      0.1677          0.6804E+06
   1060      1     11     60      0.1634          0.6804E+06
   1061      1     11     61      0.1600          0.6804E+06
   1062      1     11     62      0.1560          0.6804E+06
   1063      1     11     63      0.1514          0.6804E+06
   1064      1     11     64      0.1463          0.6804E+06
   1065      1     11     65      0.1389          0.6804E+06
   1066      1     11     66      0.1304          0.6804E+06
   1067      1     11     67      0.1237          0.6804E+06
   1068      1     11     68      0.1186          0.6804E+06
   1069      1     11     69      0.1149          0.6804E+06
   1070      1     11     70      0.1109          0.6804E+06
   1071      1     11     71      0.1065          0.6804E+06
   1072      1     11     72      0.1019          0.6804E+06
   1073      1     11     73      0.9568E-01      0.6804E+06
   1074      1     11     74      0.9004E-01      0.6804E+06
   1075      1     11     75      0.8625E-01      0.6804E+06
   1076      1     11     76      0.8396E-01      0.6804E+06
   1077      1     11     77      0.8147E-01      0.6804E+06
   1078      1     11     78      0.7762E-01      0.6804E+06
   1079      1     11     79      0.7270E-01      0.6804E+06
   1080      1     11     80      0.6809E-01      0.6804E+06
   1081      1     11     81      0.6301E-01      0.6804E+06
   1082      1     11     82      0.5786E-01      0.6804E+06
   1083      1     11     83      0.5327E-01      0.6804E+06
   1084      1     11     84      0.4735E-01      0.6804E+06
   1085      1     11     85      0.3999E-01      0.6804E+06
   1086      1     11     86      0.2950E-01      0.6804E+06
   1087      1     11     87      0.1704E-01      0.6804E+06
   1088      1     11     88      0.5363E-02      0.6804E+06
   1089      1     11     89       0.000          0.6804E+06
   1090      1     11     90       0.000          0.6804E+06
   1091      1     11     91     -0.6310E-01      0.6804E+06
   1092      1     11     92     -0.8652E-01      0.6804E+06
   1093      1     11     93     -0.1029          0.6804E+06
   1094      1     11     94     -0.1237          0.6804E+06
   1095      1     11     95     -0.1383          0.6804E+06
   1096      1     11     96     -0.1603          0.6804E+06
[...]
 SOLVING FOR ZETA FOR LAYER     2 ZONE     2
 SOLVING FOR ZETA FOR LAYER     3 ZONE     2
 
 SOLVING FOR HEAD 

 NO OUTPUT CONTROL FOR STRESS PERIOD    6   TIME STEP   30
 SOLVING FOR ZETA FOR LAYER     1 ZONE     2
 SOLVING FOR ZETA FOR LAYER     2 ZONE     2
 SOLVING FOR ZETA FOR LAYER     3 ZONE     2
 
 SOLVING FOR HEAD 

 NO OUTPUT CONTROL FOR STRESS PERIOD    6   TIME STEP   31
 SOLVING FOR ZETA FOR LAYER     1 ZONE     2
 SOLVING FOR ZETA FOR LAYER     2 ZONE     2
 SOLVING FOR ZETA FOR LAYER     3 ZONE     2
 
 SOLVING FOR HEAD 

 NO OUTPUT CONTROL FOR STRESS PERIOD    6   TIME STEP   32
 SOLVING FOR ZETA FOR LAYER     1 ZONE     2
 SOLVING FOR ZETA FOR LAYER     2 ZONE     2
 SOLVING FOR ZETA FOR LAYER     3 ZONE     2
 
 SOLVING FOR HEAD 

 NO OUTPUT CONTROL FOR STRESS PERIOD    6   TIME STEP   33
 SOLVING FOR ZETA FOR LAYER     1 ZONE     2
 SOLVING FOR ZETA FOR LAYER     2 ZONE     2
 SOLVING FOR ZETA FOR LAYER     3 ZONE     2
 
 SOLVING FOR HEAD 

 NO OUTPUT CONTROL FOR STRESS PERIOD    6   TIME STEP   34
 SOLVING FOR ZETA FOR LAYER     1 ZONE     2
 SOLVING FOR ZETA FOR LAYER     2 ZONE     2
 SOLVING FOR ZETA FOR LAYER     3 ZONE     2
 
 SOLVING FOR HEAD 

 NO OUTPUT CONTROL FOR STRESS PERIOD    6   TIME STEP   35
 SOLVING FOR ZETA FOR LAYER     1 ZONE     2
 SOLVING FOR ZETA FOR LAYER     2 ZONE     2
 SOLVING FOR ZETA FOR LAYER     3 ZONE     2
 
 SOLVING FOR HEAD 

 NO OUTPUT CONTROL FOR STRESS PERIOD    6   TIME STEP   36
 SOLVING FOR ZETA FOR LAYER     1 ZONE     2
 SOLVING FOR ZETA FOR LAYER     2 ZONE     2
 SOLVING FOR ZETA FOR LAYER     3 ZONE     2
 
 SOLVING FOR HEAD 

 NO OUTPUT CONTROL FOR STRESS PERIOD    6   TIME STEP   37
 SOLVING FOR ZETA FOR LAYER     1 ZONE     2
 SOLVING FOR ZETA FOR LAYER     2 ZONE     2
 SOLVING FOR ZETA FOR LAYER     3 ZONE     2
 
 SOLVING FOR HEAD 

 NO OUTPUT CONTROL FOR STRESS PERIOD    6   TIME STEP   38
 SOLVING FOR ZETA FOR LAYER     1 ZONE     2
 SOLVING FOR ZETA FOR LAYER     2 ZONE     2
 SOLVING FOR ZETA FOR LAYER     3 ZONE     2
 
 SOLVING FOR HEAD 

 NO OUTPUT CONTROL FOR STRESS PERIOD    6   TIME STEP   39
 SOLVING FOR ZETA FOR LAYER     1 ZONE     2
 SOLVING FOR ZETA FOR LAYER     2 ZONE     2
 SOLVING FOR ZETA FOR LAYER     3 ZONE     2
 
 SOLVING FOR HEAD 

 NO OUTPUT CONTROL FOR STRESS PERIOD    6   TIME STEP   40
 SOLVING FOR ZETA FOR LAYER     1 ZONE     2
 SOLVING FOR ZETA FOR LAYER     2 ZONE     2
 SOLVING FOR ZETA FOR LAYER     3 ZONE     2
 
 SOLVING FOR HEAD 

 NO OUTPUT CONTROL FOR STRESS PERIOD    6   TIME STEP   41
 SOLVING FOR ZETA FOR LAYER     1 ZONE     2
 SOLVING FOR ZETA FOR LAYER     2 ZONE     2
 SOLVING FOR ZETA FOR LAYER     3 ZONE     2
 
 SOLVING FOR HEAD 

 NO OUTPUT CONTROL FOR STRESS PERIOD    6   TIME STEP   42
 SOLVING FOR ZETA FOR LAYER     1 ZONE     2
 SOLVING FOR ZETA FOR LAYER     2 ZONE     2
 SOLVING FOR ZETA FOR LAYER     3 ZONE     2
 
 SOLVING FOR HEAD 

 NO OUTPUT CONTROL FOR STRESS PERIOD    6   TIME STEP   43
 SOLVING FOR ZETA FOR LAYER     1 ZONE     2
 SOLVING FOR ZETA FOR LAYER     2 ZONE     2
 SOLVING FOR ZETA FOR LAYER     3 ZONE     2
 
 SOLVING FOR HEAD 

 NO OUTPUT CONTROL FOR STRESS PERIOD    6   TIME STEP   44
 SOLVING FOR ZETA FOR LAYER     1 ZONE     2
 SOLVING FOR ZETA FOR LAYER     2 ZONE     2
 SOLVING FOR ZETA FOR LAYER     3 ZONE     2
 
 SOLVING FOR HEAD 

 NO OUTPUT CONTROL FOR STRESS PERIOD    6   TIME STEP   45
 SOLVING FOR ZETA FOR LAYER     1 ZONE     2
 SOLVING FOR ZETA FOR LAYER     2 ZONE     2
 SOLVING FOR ZETA FOR LAYER     3 ZONE     2
 
 SOLVING FOR HEAD 

 NO OUTPUT CONTROL FOR STRESS PERIOD    6   TIME STEP   46
 SOLVING FOR ZETA FOR LAYER     1 ZONE     2
 SOLVING FOR ZETA FOR LAYER     2 ZONE     2
 SOLVING FOR ZETA FOR LAYER     3 ZONE     2
 
 SOLVING FOR HEAD 

 NO OUTPUT CONTROL FOR STRESS PERIOD    6   TIME STEP   47
 SOLVING FOR ZETA FOR LAYER     1 ZONE     2
 SOLVING FOR ZETA FOR LAYER     2 ZONE     2
 SOLVING FOR ZETA FOR LAYER     3 ZONE     2
 
 SOLVING FOR HEAD 

 NO OUTPUT CONTROL FOR STRESS PERIOD    6   TIME STEP   48
 SOLVING FOR ZETA FOR LAYER     1 ZONE     2
 SOLVING FOR ZETA FOR LAYER     2 ZONE     2
 SOLVING FOR ZETA FOR LAYER     3 ZONE     2
 
 SOLVING FOR HEAD 

 NO OUTPUT CONTROL FOR STRESS PERIOD    6   TIME STEP   49
 SOLVING FOR ZETA FOR LAYER     1 ZONE     2
 SOLVING FOR ZETA FOR LAYER     2 ZONE     2
 SOLVING FOR ZETA FOR LAYER     3 ZONE     2
 
 SOLVING FOR HEAD 

 NO OUTPUT CONTROL FOR STRESS PERIOD    6   TIME STEP   50
 SOLVING FOR ZETA FOR LAYER     1 ZONE     2
 SOLVING FOR ZETA FOR LAYER     2 ZONE     2
 SOLVING FOR ZETA FOR LAYER     3 ZONE     2
 
 SOLVING FOR HEAD 

 NO OUTPUT CONTROL FOR STRESS PERIOD    6   TIME STEP   51
 SOLVING FOR ZETA FOR LAYER     1 ZONE     2
 SOLVING FOR ZETA FOR LAYER     2 ZONE     2
 SOLVING FOR ZETA FOR LAYER     3 ZONE     2
 
 SOLVING FOR HEAD 

 NO OUTPUT CONTROL FOR STRESS PERIOD    6   TIME STEP   52
 SOLVING FOR ZETA FOR LAYER     1 ZONE     2
 SOLVING FOR ZETA FOR LAYER     2 ZONE     2
 SOLVING FOR ZETA FOR LAYER     3 ZONE     2
 
 SOLVING FOR HEAD 

 NO OUTPUT CONTROL FOR STRESS PERIOD    6   TIME STEP   53
 SOLVING FOR ZETA FOR LAYER     1 ZONE     2
 SOLVING FOR ZETA FOR LAYER     2 ZONE     2
 SOLVING FOR ZETA FOR LAYER     3 ZONE     2
 
 SOLVING FOR HEAD 

 NO OUTPUT CONTROL FOR STRESS PERIOD    6   TIME STEP   54
 SOLVING FOR ZETA FOR LAYER     1 ZONE     2
 SOLVING FOR ZETA FOR LAYER     2 ZONE     2
 SOLVING FOR ZETA FOR LAYER     3 ZONE     2
 
 SOLVING FOR HEAD 

 NO OUTPUT CONTROL FOR STRESS PERIOD    6   TIME STEP   55
 SOLVING FOR ZETA FOR LAYER     1 ZONE     2
 SOLVING FOR ZETA FOR LAYER     2 ZONE     2
 SOLVING FOR ZETA FOR LAYER     3 ZONE     2
 
 SOLVING FOR HEAD 

 NO OUTPUT CONTROL FOR STRESS PERIOD    6   TIME STEP   56
 SOLVING FOR ZETA FOR LAYER     1 ZONE     2
 SOLVING FOR ZETA FOR LAYER     2 ZONE     2
 SOLVING FOR ZETA FOR LAYER     3 ZONE     2
 
 SOLVING FOR HEAD 

 NO OUTPUT CONTROL FOR STRESS PERIOD    6   TIME STEP   57
 SOLVING FOR ZETA FOR LAYER     1 ZONE     2
 SOLVING FOR ZETA FOR LAYER     2 ZONE     2
 SOLVING FOR ZETA FOR LAYER     3 ZONE     2
 
 SOLVING FOR HEAD 

 NO OUTPUT CONTROL FOR STRESS PERIOD    6   TIME STEP   58
 SOLVING FOR ZETA FOR LAYER     1 ZONE     2
 SOLVING FOR ZETA FOR LAYER     2 ZONE     2
 SOLVING FOR ZETA FOR LAYER     3 ZONE     2
 
 SOLVING FOR HEAD 

 NO OUTPUT CONTROL FOR STRESS PERIOD    6   TIME STEP   59
 SOLVING FOR ZETA FOR LAYER     1 ZONE     2
 SOLVING FOR ZETA FOR LAYER     2 ZONE     2
 SOLVING FOR ZETA FOR LAYER     3 ZONE     2
 
 SOLVING FOR HEAD 

 NO OUTPUT CONTROL FOR STRESS PERIOD    6   TIME STEP   60
 SOLVING FOR ZETA FOR LAYER     1 ZONE     2
 SOLVING FOR ZETA FOR LAYER     2 ZONE     2
 SOLVING FOR ZETA FOR LAYER     3 ZONE     2
 
 SOLVING FOR HEAD 

 NO OUTPUT CONTROL FOR STRESS PERIOD    6   TIME STEP   61
 SOLVING FOR ZETA FOR LAYER     1 ZONE     2
 SOLVING FOR ZETA FOR LAYER     2 ZONE     2
 SOLVING FOR ZETA FOR LAYER     3 ZONE     2
 
 SOLVING FOR HEAD 

 NO OUTPUT CONTROL FOR STRESS PERIOD    6   TIME STEP   62
 SOLVING FOR ZETA FOR LAYER     1 ZONE     2
 SOLVING FOR ZETA FOR LAYER     2 ZONE     2
 SOLVING FOR ZETA FOR LAYER     3 ZONE     2
 
 SOLVING FOR HEAD 

 NO OUTPUT CONTROL FOR STRESS PERIOD    6   TIME STEP   63
 SOLVING FOR ZETA FOR LAYER     1 ZONE     2
 SOLVING FOR ZETA FOR LAYER     2 ZONE     2
 SOLVING FOR ZETA FOR LAYER     3 ZONE     2
 
 SOLVING FOR HEAD 

 NO OUTPUT CONTROL FOR STRESS PERIOD    6   TIME STEP   64
 SOLVING FOR ZETA FOR LAYER     1 ZONE     2
 SOLVING FOR ZETA FOR LAYER     2 ZONE     2
 SOLVING FOR ZETA FOR LAYER     3 ZONE     2
 
 SOLVING FOR HEAD 

 NO OUTPUT CONTROL FOR STRESS PERIOD    6   TIME STEP   65
 SOLVING FOR ZETA FOR LAYER     1 ZONE     2
 SOLVING FOR ZETA FOR LAYER     2 ZONE     2
 SOLVING FOR ZETA FOR LAYER     3 ZONE     2
 
 SOLVING FOR HEAD 

 NO OUTPUT CONTROL FOR STRESS PERIOD    6   TIME STEP   66
 SOLVING FOR ZETA FOR LAYER     1 ZONE     2
 SOLVING FOR ZETA FOR LAYER     2 ZONE     2
 SOLVING FOR ZETA FOR LAYER     3 ZONE     2
 
 SOLVING FOR HEAD 

 NO OUTPUT CONTROL FOR STRESS PERIOD    6   TIME STEP   67
 SOLVING FOR ZETA FOR LAYER     1 ZONE     2
 SOLVING FOR ZETA FOR LAYER     2 ZONE     2
 SOLVING FOR ZETA FOR LAYER     3 ZONE     2
 
 SOLVING FOR HEAD 

 NO OUTPUT CONTROL FOR STRESS PERIOD    6   TIME STEP   68
 SOLVING FOR ZETA FOR LAYER     1 ZONE     2
 SOLVING FOR ZETA FOR LAYER     2 ZONE     2
 SOLVING FOR ZETA FOR LAYER     3 ZONE     2
 
 SOLVING FOR HEAD 

 NO OUTPUT CONTROL FOR STRESS PERIOD    6   TIME STEP   69
 SOLVING FOR ZETA FOR LAYER     1 ZONE     2
 SOLVING FOR ZETA FOR LAYER     2 ZONE     2
 SOLVING FOR ZETA FOR LAYER     3 ZONE     2
 
 SOLVING FOR HEAD 

 NO OUTPUT CONTROL FOR STRESS PERIOD    6   TIME STEP   70
 SOLVING FOR ZETA FOR LAYER     1 ZONE     2
 SOLVING FOR ZETA FOR LAYER     2 ZONE     2
 SOLVING FOR ZETA FOR LAYER     3 ZONE     2
 
 SOLVING FOR HEAD 

 NO OUTPUT CONTROL FOR STRESS PERIOD    6   TIME STEP   71
 SOLVING FOR ZETA FOR LAYER     1 ZONE     2
 SOLVING FOR ZETA FOR LAYER     2 ZONE     2
 SOLVING FOR ZETA FOR LAYER     3 ZONE     2
 
 SOLVING FOR HEAD 

 NO OUTPUT CONTROL FOR STRESS PERIOD    6   TIME STEP   72
 SOLVING FOR ZETA FOR LAYER     1 ZONE     2
 SOLVING FOR ZETA FOR LAYER     2 ZONE     2
 SOLVING FOR ZETA FOR LAYER     3 ZONE     2
 
 SOLVING FOR HEAD 

 NO OUTPUT CONTROL FOR STRESS PERIOD    6   TIME STEP   73
 SOLVING FOR ZETA FOR LAYER     1 ZONE     2
 SOLVING FOR ZETA FOR LAYER     2 ZONE     2
 SOLVING FOR ZETA FOR LAYER     3 ZONE     2
 
 SOLVING FOR HEAD 

 NO OUTPUT CONTROL FOR STRESS PERIOD    6   TIME STEP   74
 SOLVING FOR ZETA FOR LAYER     1 ZONE     2
 SOLVING FOR ZETA FOR LAYER     2 ZONE     2
 SOLVING FOR ZETA FOR LAYER     3 ZONE     2
 
 SOLVING FOR HEAD 

 NO OUTPUT CONTROL FOR STRESS PERIOD    6   TIME STEP   75
 SOLVING FOR ZETA FOR LAYER     1 ZONE     2
 SOLVING FOR ZETA FOR LAYER     2 ZONE     2
 SOLVING FOR ZETA FOR LAYER     3 ZONE     2
 
 SOLVING FOR HEAD 

 NO OUTPUT CONTROL FOR STRESS PERIOD    6   TIME STEP   76
 SOLVING FOR ZETA FOR LAYER     1 ZONE     2
 SOLVING FOR ZETA FOR LAYER     2 ZONE     2
 SOLVING FOR ZETA FOR LAYER     3 ZONE     2
 
 SOLVING FOR HEAD 

 NO OUTPUT CONTROL FOR STRESS PERIOD    6   TIME STEP   77
 SOLVING FOR ZETA FOR LAYER     1 ZONE     2
 SOLVING FOR ZETA FOR LAYER     2 ZONE     2
 SOLVING FOR ZETA FOR LAYER     3 ZONE     2
 
 SOLVING FOR HEAD 

 NO OUTPUT CONTROL FOR STRESS PERIOD    6   TIME STEP   78
 SOLVING FOR ZETA FOR LAYER     1 ZONE     2
 SOLVING FOR ZETA FOR LAYER     2 ZONE     2
 SOLVING FOR ZETA FOR LAYER     3 ZONE     2
 
 SOLVING FOR HEAD 

 NO OUTPUT CONTROL FOR STRESS PERIOD    6   TIME STEP   79
 SOLVING FOR ZETA FOR LAYER     1 ZONE     2
 SOLVING FOR ZETA FOR LAYER     2 ZONE     2
 SOLVING FOR ZETA FOR LAYER     3 ZONE     2
 
 SOLVING FOR HEAD 

 NO OUTPUT CONTROL FOR STRESS PERIOD    6   TIME STEP   80
 SOLVING FOR ZETA FOR LAYER     1 ZONE     2
 SOLVING FOR ZETA FOR LAYER     2 ZONE     2
 SOLVING FOR ZETA FOR LAYER     3 ZONE     2
 
 SOLVING FOR HEAD 

 NO OUTPUT CONTROL FOR STRESS PERIOD    6   TIME STEP   81
 SOLVING FOR ZETA FOR LAYER     1 ZONE     2
 SOLVING FOR ZETA FOR LAYER     2 ZONE     2
 SOLVING FOR ZETA FOR LAYER     3 ZONE     2
 
 SOLVING FOR HEAD 

 NO OUTPUT CONTROL FOR STRESS PERIOD    6   TIME STEP   82
 SOLVING FOR ZETA FOR LAYER     1 ZONE     2
 SOLVING FOR ZETA FOR LAYER     2 ZONE     2
 SOLVING FOR ZETA FOR LAYER     3 ZONE     2
 
 SOLVING FOR HEAD 

 NO OUTPUT CONTROL FOR STRESS PERIOD    6   TIME STEP   83
 SOLVING FOR ZETA FOR LAYER     1 ZONE     2
 SOLVING FOR ZETA FOR LAYER     2 ZONE     2
 SOLVING FOR ZETA FOR LAYER     3 ZONE     2
 
 SOLVING FOR HEAD 

 NO OUTPUT CONTROL FOR STRESS PERIOD    6   TIME STEP   84
 SOLVING FOR ZETA FOR LAYER     1 ZONE     2
 SOLVING FOR ZETA FOR LAYER     2 ZONE     2
 SOLVING FOR ZETA FOR LAYER     3 ZONE     2
 
 SOLVING FOR HEAD 

 NO OUTPUT CONTROL FOR STRESS PERIOD    6   TIME STEP   85
 SOLVING FOR ZETA FOR LAYER     1 ZONE     2
 SOLVING FOR ZETA FOR LAYER     2 ZONE     2
 SOLVING FOR ZETA FOR LAYER     3 ZONE     2
 
 SOLVING FOR HEAD 

 NO OUTPUT CONTROL FOR STRESS PERIOD    6   TIME STEP   86
 SOLVING FOR ZETA FOR LAYER     1 ZONE     2
 SOLVING FOR ZETA FOR LAYER     2 ZONE     2
 SOLVING FOR ZETA FOR LAYER     3 ZONE     2
 
 SOLVING FOR HEAD 

 NO OUTPUT CONTROL FOR STRESS PERIOD    6   TIME STEP   87
 SOLVING FOR ZETA FOR LAYER     1 ZONE     2
 SOLVING FOR ZETA FOR LAYER     2 ZONE     2
 SOLVING FOR ZETA FOR LAYER     3 ZONE     2
 
 SOLVING FOR HEAD 

 NO OUTPUT CONTROL FOR STRESS PERIOD    6   TIME STEP   88
 SOLVING FOR ZETA FOR LAYER     1 ZONE     2
 SOLVING FOR ZETA FOR LAYER     2 ZONE     2
 SOLVING FOR ZETA FOR LAYER     3 ZONE     2
 
 SOLVING FOR HEAD 

 NO OUTPUT CONTROL FOR STRESS PERIOD    6   TIME STEP   89
 SOLVING FOR ZETA FOR LAYER     1 ZONE     2
 SOLVING FOR ZETA FOR LAYER     2 ZONE     2
 SOLVING FOR ZETA FOR LAYER     3 ZONE     2
 
 SOLVING FOR HEAD 

 NO OUTPUT CONTROL FOR STRESS PERIOD    6   TIME STEP   90
 SOLVING FOR ZETA FOR LAYER     1 ZONE     2
 SOLVING FOR ZETA FOR LAYER     2 ZONE     2
 SOLVING FOR ZETA FOR LAYER     3 ZONE     2
 
 SOLVING FOR HEAD 

 NO OUTPUT CONTROL FOR STRESS PERIOD    6   TIME STEP   91
 SOLVING FOR ZETA FOR LAYER     1 ZONE     2
 SOLVING FOR ZETA FOR LAYER     2 ZONE     2
 SOLVING FOR ZETA FOR LAYER     3 ZONE     2
 
 SOLVING FOR HEAD 

 OUTPUT CONTROL FOR STRESS PERIOD    6   TIME STEP   92
    PRINT BUDGET
    SAVE HEAD FOR ALL LAYERS
 SOLVING FOR ZETA FOR LAYER     1 ZONE     2
 SOLVING FOR ZETA FOR LAYER     2 ZONE     2
 SOLVING FOR ZETA FOR LAYER     3 ZONE     2
 UBUDSV SAVING "      ZETASRF  1" ON UNIT 55 AT TIME STEP 92, STRESS PERIOD    6


                      VOLUMETRIC SWI ZONE BUDGET FOR ENTIRE MODEL
                     AT END OF TIME STEP   92 IN STRESS PERIOD   6
                                      ZONE     1
  -----------------------------------------------------------------------------------

        CUMULATIVE VOLUMES      L**3       RATES FOR THIS TIME STEP      L**3/T
        ------------------                 ------------------------

              IN:                                      IN:
              ---                                      ---
             BOUNDARIES =   421553760.0000            BOUNDARIES =       3.8666E-02
          CONSTANT HEAD =           0.0000         CONSTANT HEAD =           0.0000
            ZONE CHANGE =    13454986.0000           ZONE CHANGE =         674.0773
       ZONE CHG TIP/TOE =   217984832.0000      ZONE CHG TIP/TOE =          16.4212
            ZONE MIXING =     1078406.8750           ZONE MIXING =           0.0000

               TOTAL IN =   654071936.0000              TOTAL IN =         690.5371

             OUT:                                     OUT:
             ----                                     ----
             BOUNDARIES =   274012288.0000            BOUNDARIES =         587.8442
          CONSTANT HEAD =           0.0000         CONSTANT HEAD =           0.0000
            ZONE CHANGE =   231233232.0000           ZONE CHANGE =          37.4406
       ZONE CHG TIP/TOE =      394491.4062      ZONE CHG TIP/TOE =           3.5085
            ZONE MIXING =    61514220.0000           ZONE MIXING =          58.2583

              TOTAL OUT =   567154240.0000             TOTAL OUT =         687.0518

               IN - OUT =    86917696.0000              IN - OUT =           3.4854

    PERCENT DISCREPANCY =          14.23     PERCENT DISCREPANCY =           0.51



                      VOLUMETRIC SWI ZONE BUDGET FOR ENTIRE MODEL
                     AT END OF TIME STEP   92 IN STRESS PERIOD   6
                                      ZONE     2
  -----------------------------------------------------------------------------------

        CUMULATIVE VOLUMES      L**3       RATES FOR THIS TIME STEP      L**3/T
        ------------------                 ------------------------

              IN:                                      IN:
              ---                                      ---
             BOUNDARIES =    83666192.0000            BOUNDARIES =         851.9766
          CONSTANT HEAD =           0.0000         CONSTANT HEAD =           0.0000
            ZONE CHANGE =    13095769.0000           ZONE CHANGE =         128.5532
       ZONE CHG TIP/TOE =   141194736.0000      ZONE CHG TIP/TOE =          16.9308
            ZONE MIXING =    61514220.0000           ZONE MIXING =          58.2583

               TOTAL IN =   299470912.0000              TOTAL IN =        1055.7189

             OUT:                                     OUT:
             ----                                     ----
             BOUNDARIES =   231543536.0000            BOUNDARIES =         463.6862
          CONSTANT HEAD =           0.0000         CONSTANT HEAD =           0.0000
            ZONE CHANGE =   153936800.0000           ZONE CHANGE =         579.2319
       ZONE CHG TIP/TOE =      140169.8906      ZONE CHG TIP/TOE =           4.3835
            ZONE MIXING =     1078406.8750           ZONE MIXING =           0.0000

              TOTAL OUT =   386698880.0000             TOTAL OUT =        1047.3018

               IN - OUT =   -87227968.0000              IN - OUT =           8.4171

    PERCENT DISCREPANCY =         -25.42     PERCENT DISCREPANCY =           0.80


 HEAD WILL BE SAVED ON UNIT   51 AT END OF TIME STEP   92, STRESS PERIOD    6
1
  VOLUMETRIC BUDGET FOR ENTIRE MODEL AT END OF TIME STEP   92, STRESS PERIOD   6
  ------------------------------------------------------------------------------

     CUMULATIVE VOLUMES      L**3       RATES FOR THIS TIME STEP      L**3/T
     ------------------                 ------------------------

           IN:                                      IN:
           ---                                      ---
             STORAGE =      290885.9688               STORAGE =         197.6776
       CONSTANT HEAD =           0.0000         CONSTANT HEAD =           0.0000
          SWIADDTOCH =           0.0000            SWIADDTOCH =           0.0000
               WELLS =           0.0000                 WELLS =           0.0000
     HEAD DEP BOUNDS =    73820896.0000       HEAD DEP BOUNDS =         852.0283
            RECHARGE =   431397056.0000              RECHARGE =           0.0000

            TOTAL IN =   505508832.0000              TOTAL IN =        1049.7058

          OUT:                                     OUT:
          ----                                     ----
             STORAGE =      215426.6719               STORAGE =           2.0194
       CONSTANT HEAD =           0.0000         CONSTANT HEAD =           0.0000
          SWIADDTOCH =           0.0000            SWIADDTOCH =           0.0000
               WELLS =       28576.9355                 WELLS =         103.5400
     HEAD DEP BOUNDS =   505528000.0000       HEAD DEP BOUNDS =         948.2350
            RECHARGE =           0.0000              RECHARGE =           0.0000

           TOTAL OUT =   505772000.0000             TOTAL OUT =        1053.7944

            IN - OUT =     -263168.0000              IN - OUT =          -4.0886

 PERCENT DISCREPANCY =          -0.05     PERCENT DISCREPANCY =          -0.39






         TIME SUMMARY AT END OF TIME STEP   92 IN STRESS PERIOD    6
                    SECONDS     MINUTES      HOURS       DAYS        YEARS
                    -----------------------------------------------------------
   TIME STEP LENGTH  86400.      1440.0      24.000      1.0000     2.73785E-03
 STRESS PERIOD TIME 7.94880E+06 1.32480E+05  2208.0      92.000     0.25188    
         TOTAL TIME 6.38256E+09 1.06376E+08 1.77293E+06  73872.      202.25    
1

 Run end date and time (yyyy/mm/dd hh:mm:ss): 2017/12/17 15:52:20
 Elapsed run time:  7 Minutes, 52.936 Seconds

