                                  MODFLOW-2005     
      U.S. GEOLOGICAL SURVEY MODULAR FINITE-DIFFERENCE GROUND-WATER FLOW MODEL
                            VERSION 1.12.00 2/3/2017

 LIST FILE: swifogland_s1.list
                         UNIT    2

 OPENING swifogland_s1.dis
 FILE TYPE:DIS   UNIT   11   STATUS:OLD    
 FORMAT:FORMATTED              ACCESS:SEQUENTIAL          

 OPENING swifogland_s1.bas
 FILE TYPE:BAS6   UNIT   13   STATUS:OLD    
 FORMAT:FORMATTED              ACCESS:SEQUENTIAL          

 OPENING swifogland_s1.lpf
 FILE TYPE:LPF   UNIT   15   STATUS:OLD    
 FORMAT:FORMATTED              ACCESS:SEQUENTIAL          

 OPENING swifogland_s1.ghb
 FILE TYPE:GHB   UNIT   23   STATUS:OLD    
 FORMAT:FORMATTED              ACCESS:SEQUENTIAL          

 OPENING swifogland_s1.rch
 FILE TYPE:RCH   UNIT   19   STATUS:OLD    
 FORMAT:FORMATTED              ACCESS:SEQUENTIAL          

 OPENING swifogland_s1.swi2
 FILE TYPE:SWI2   UNIT   29   STATUS:OLD    
 FORMAT:FORMATTED              ACCESS:SEQUENTIAL          

 OPENING swifogland_s1.oc
 FILE TYPE:OC   UNIT   14   STATUS:OLD    
 FORMAT:FORMATTED              ACCESS:SEQUENTIAL          

 OPENING swifogland_s1.pcg
 FILE TYPE:PCG   UNIT   27   STATUS:OLD    
 FORMAT:FORMATTED              ACCESS:SEQUENTIAL          

 OPENING swifogland_s1.zta
 FILE TYPE:DATA(BINARY)   UNIT   55   STATUS:REPLACE
 FORMAT:UNFORMATTED            ACCESS:STREAM              

 OPENING swifogland_s1.zobs.out
 FILE TYPE:DATA   UNIT 1051   STATUS:UNKNOWN
 FORMAT:FORMATTED              ACCESS:SEQUENTIAL          

 OPENING swifogland_s1.hds
 FILE TYPE:DATA(BINARY)   UNIT   51   STATUS:REPLACE
 FORMAT:UNFORMATTED            ACCESS:STREAM              

 BAS -- BASIC PACKAGE, VERSION 7, 5/2/2005 INPUT READ FROM UNIT   13
 
 MODFLOW was compiled using mixed precision
 Precision of REAL variables:           6
 Precision of DOUBLE PRECISION variables:          15

 DISCRETIZATION INPUT DATA READ FROM UNIT   11
 # DIS package for  MODFLOW-2005, generated by Flopy.
    2 LAYERS       100 ROWS       100 COLUMNS
    3 STRESS PERIOD(S) IN SIMULATION
 MODEL TIME UNIT IS DAYS
 MODEL LENGTH UNIT IS METERS
  Confining bed flag for each layer:
   0   0



                               DELR
 READING ON UNIT   11 WITH FORMAT: (100E15.6)          



                               DELC
 READING ON UNIT   11 WITH FORMAT: (100E15.6)          



           TOP ELEVATION OF LAYER 1
 READING ON UNIT   11 WITH FORMAT: (100E15.6)          

   MODEL LAYER BOTTOM EL. =  -43.0000     FOR LAYER   1

   MODEL LAYER BOTTOM EL. =  -120.000     FOR LAYER   2


 STRESS PERIOD     LENGTH       TIME STEPS     MULTIPLIER FOR DELT    SS FLAG
 ----------------------------------------------------------------------------
        1         73050.00       1000                    1.000         SS
        2         4383.000        120                    1.000         SS
        3         6574.500        180                    1.000         SS

 STEADY-STATE SIMULATION



 
 # BAS6 package for  MODFLOW-2005, generated by Flopy.                           
 THE FREE FORMAT OPTION HAS BEEN SELECTED



                     BOUNDARY ARRAY FOR LAYER   1
 READING ON UNIT   13 WITH FORMAT: (100I10)            



                     BOUNDARY ARRAY FOR LAYER   2
 READING ON UNIT   13 WITH FORMAT: (100I10)            

 AQUIFER HEAD WILL BE SET TO  -999.99     AT ALL NO-FLOW NODES (IBOUND=0).



                       INITIAL HEAD FOR LAYER   1
 READING ON UNIT   13 WITH FORMAT: (100E15.6)          



                       INITIAL HEAD FOR LAYER   2
 READING ON UNIT   13 WITH FORMAT: (100E15.6)          
 # OC package for  MODFLOW-2005, generated by Flopy.

 OUTPUT CONTROL IS SPECIFIED ONLY AT TIME STEPS FOR WHICH OUTPUT IS DESIRED
 COMPACT CELL-BY-CELL BUDGET FILES WILL BE WRITTEN
 AUXILIARY DATA WILL BE SAVED IN CELL-BY-CELL BUDGET FILES
 HEAD PRINT FORMAT CODE IS   0    DRAWDOWN PRINT FORMAT CODE IS   0
 HEADS WILL BE SAVED ON UNIT   51    DRAWDOWNS WILL BE SAVED ON UNIT    0

 LPF -- LAYER-PROPERTY FLOW PACKAGE, VERSION 7, 5/2/2005
         INPUT READ FROM UNIT   15
 # LPF package for  MODFLOW-2005, generated by Flopy.
 HEAD AT CELLS THAT CONVERT TO DRY= -1.00000E+30
 No named parameters

   LAYER FLAGS:
 LAYER       LAYTYP        LAYAVG         CHANI        LAYVKA        LAYWET
 ---------------------------------------------------------------------------
    1             0             0     1.000E+00             0             0
    2             0             0     1.000E+00             0             0

   INTERPRETATION OF LAYER FLAGS:
                        INTERBLOCK     HORIZONTAL    DATA IN
         LAYER TYPE   TRANSMISSIVITY   ANISOTROPY   ARRAY VKA   WETTABILITY
 LAYER      (LAYTYP)      (LAYAVG)       (CHANI)      (LAYVKA)      (LAYWET)
 ---------------------------------------------------------------------------
    1      CONFINED      HARMONIC     1.000E+00    VERTICAL K  NON-WETTABLE
    2      CONFINED      HARMONIC     1.000E+00    VERTICAL K  NON-WETTABLE

 WETTING CAPABILITY IS NOT ACTIVE IN ANY LAYER

    HYD. COND. ALONG ROWS =  1.000000E-06 FOR LAYER   1

      VERTICAL HYD. COND. =  1.000000E-07 FOR LAYER   1

    HYD. COND. ALONG ROWS =  1.000000E-06 FOR LAYER   2

      VERTICAL HYD. COND. =  1.000000E-07 FOR LAYER   2

 GHB -- GENERAL-HEAD BOUNDARY PACKAGE, VERSION 7, 5/2/2005
         INPUT READ FROM UNIT   23
 # GHB package for  MODFLOW-2005, generated by Flopy.
 No named parameters
 MAXIMUM OF   8042 ACTIVE GHB CELLS AT ONE TIME


     0 GHB parameters

 RCH -- RECHARGE PACKAGE, VERSION 7, 5/2/2005 INPUT READ FROM UNIT   19
 # RCH package for  MODFLOW-2005, generated by Flopy.
 No named parameters
 OPTION 3 -- RECHARGE TO HIGHEST ACTIVE NODE IN EACH VERTICAL COLUMN


     0 Recharge parameters

 PCG -- CONJUGATE-GRADIENT SOLUTION PACKAGE, VERSION 7, 5/2/2005
 # PCG package for  MODFLOW-2005, generated by Flopy.
 MAXIMUM OF    100 CALLS OF SOLUTION ROUTINE
 MAXIMUM OF     50 INTERNAL ITERATIONS PER CALL TO SOLUTION ROUTINE
 MATRIX PRECONDITIONING TYPE :    1



                                    SOLUTION BY THE CONJUGATE-GRADIENT METHOD
                                   -------------------------------------------
                    MAXIMUM NUMBER OF CALLS TO PCG ROUTINE =      100
                        MAXIMUM ITERATIONS PER CALL TO PCG =       50
                               MATRIX PRECONDITIONING TYPE =        1
        RELAXATION FACTOR (ONLY USED WITH PRECOND. TYPE 1) =    0.10000E+01
 PARAMETER OF POLYNOMIAL PRECOND. = 2 (2) OR IS CALCULATED :        0
                         HEAD CHANGE CRITERION FOR CLOSURE =    0.10000E-05
                     RESIDUAL CHANGE CRITERION FOR CLOSURE =    0.30000E-02
            PCG HEAD AND RESIDUAL CHANGE PRINTOUT INTERVAL =      999
     PRINTING FROM SOLVER IS LIMITED(1) OR SUPPRESSED (>1) =        3
                            STEADY-STATE DAMPING PARAMETER =    0.10000E+01
                               TRANSIENT DAMPING PARAMETER =    0.10000E+01


 SWI2 -- SWI PACKAGE, VERSION 2.0.0, 07/22/2013
 --------------------------------------------------
 SWI2 INPUT READ FROM UNIT 29


 # SWI2 package for  MODFLOW-2005, generated by Flopy.
 # Dataset 1


 SWI2 DATASET 1
 ----------------------------------------------------
 NUMBER OF SURFACES (NSRF):                         1
 TOTAL NUMBER OF ZONES:                             2
 DENSITY DISTRIBUTION OPTION (ISTRAT):              1
   VARIABLE DENSITY FLOW -- ISTRAT = 0
   STRATIFIED FLOW       -- ISTRAT = 1
 NUMBER OF SWI OBSERVATIONS (NOBS):                 2
 ZETA OUTPUT FILE UNIT NUMBER (ISWIZT):            55
 BUDGET OUTPUT FILE UNIT NUMBER (ISWICB):           0
 OBSERVATION OUTPUT FILE UNIT NUMBER (ISWIOBS):  1051
 ----------------------------------------------------
 # Dataset 2a


 SWI2 DATASET 2A
 ----------------------------------------------------
 SOLVER (NSOLVER):                                  2
   SOLVER =  PRECONDITIONED CONJUGATE GRADIENT (PCG)
 SOLVER PRINTOUT INTERVAL (IPRSOL):               999
 SOLVER OUTPUT FLAG (MUTSOL):                       3
   0 = PRINTING EVERY ITERATION
   1 = LIMITED (TOTAL NUMBER OF ITERATIONS)
   2 = NO PRINTING
   3 = ONLY IF CONVERGENCE FAILS
 ----------------------------------------------------
 # Dataset 2b


 SWI2 DATASET 2B
 PRECONDITIONED CONJUGATE GRADIENT PARAMETERS
 ----------------------------------------------------
 MAXIMUM NUMBER OF CALLS TO PCG (MXITER):         100
 MAXIMUM ITERATIONS PER CALL TO PCG (ITER1):       20
 MATRIX PRECONDITIONING TYPE (NPCOND):              1
   1 = MODIFIED INCOMPLETE CHOLESKY
   2 = NEUMANN POLYNOMIAL - THE MATRIX WILL BE SCALED
 ZETA CLOSURE CRITERION (ZCLOSE):         0.10000E-02
 RESIDUAL CLOSURE CRITERION (RCLOSE):     0.10000E-03
 RELAXATION FACTOR (RELAX):                1.0000    
   ONLY USED WITH NPCOND = 1
 POLYNOMIAL PRECONDITIONER PARAMETER (NBPOL):       2
   INTERNALLY CALCULATED IF NPCOND.NE.2
 STEADY-STATE DAMPING (DAMPPCG):           1.0000    
 TRANSIENT DAMPING (DAMPPCGT):             1.0000    
 ----------------------------------------------------
 # Dataset 3a


 SWI2 DATASET 3A
 ----------------------------------------------------
 MAXIMUM TOE SURFACE SLOPE (TOESLOPE):      0.100    
 MAXIMUM TIP SURFACE SLOPE (TIPSLOPE):      0.100    
 EXCESS SURFACE SLOPE FRACTION (ALPHA):     0.100    
 MINIMUM ZONE THICKNESS FRACTION (BETA):    0.100    
 ----------------------------------------------------



                             NUZONE
 READING ON UNIT   29 WITH FORMAT: (2E15.6)            



                   ZETA SURFACE  1  FOR LAYER   1
 READING ON UNIT   29 WITH FORMAT: (100E15.6)          



                   ZETA SURFACE  1  FOR LAYER   2
 READING ON UNIT   29 WITH FORMAT: (100E15.6)          

                      SSZ =  0.200000     FOR LAYER   1

                      SSZ =  0.200000     FOR LAYER   2



                            IZONENR FOR LAYER   1
 READING ON UNIT   29 WITH FORMAT: (100I10)            



                            IZONENR FOR LAYER   2
 READING ON UNIT   29 WITH FORMAT: (100I10)            
 # Dataset 8


                 SWI2 OBSERVATION LOCATIONS
  OBSERVATION      LAYER        ROW     COLUMN       OBSNAM
 ----------------------------------------------------------
            1          1         31         36      layer1_
            2          2         31         36      layer2_


              SWI2 INVALID OBSERVATION LOCATIONS
 -----------------------------------------------------------
         NONE
1
                            STRESS PERIOD NO.    1, LENGTH =   73050.00    
                            -----------------------------------------------

                              NUMBER OF TIME STEPS =  1000

                               MULTIPLIER FOR DELT =     1.000

                            INITIAL TIME STEP SIZE =   73.05000    

 BOUND. NO. LAYER   ROW   COL     STAGE      CONDUCTANCE         
 ----------------------------------------------------------------
      1      1      1      1      0.3710           15.62    
      2      1      1      2      0.3728           15.62    
      3      1      1      3      0.3752           15.62    
      4      1      1      4      0.3788           15.62    
      5      1      1      5      0.3831           15.62    
      6      1      1      6      0.3866           15.62    
      7      1      1      7      0.3899           15.62    
      8      1      1      8      0.3923           15.62    
      9      1      1      9      0.3929           15.62    
     10      1      1     10      0.3920           15.62    
     11      1      1     11      0.3898           15.62    
     12      1      1     12      0.3858           15.62    
     13      1      1     13      0.3804           15.62    
     14      1      1     14      0.3745           15.62    
     15      1      1     15      0.3653           15.62    
     16      1      1     16      0.3536           15.62    
     17      1      1     17      0.3377           15.62    
     18      1      1     18      0.3210           15.62    
     19      1      1     19      0.3060           15.62    
     20      1      1     20      0.2933           15.62    
     21      1      1     21      0.2859           15.62    
     22      1      1     22      0.2825           15.62    
     23      1      1     23      0.2793           15.62    
     24      1      1     24      0.2771           15.62    
     25      1      1     25      0.2757           15.62    
     26      1      1     26      0.2760           15.62    
     27      1      1     27      0.2781           15.62    
     28      1      1     28      0.2828           15.62    
     29      1      1     29      0.2895           15.62    
     30      1      1     30      0.2965           15.62    
     31      1      1     31      0.3052           15.62    
     32      1      1     32      0.3127           15.62    
     33      1      1     33      0.3202           15.62    
     34      1      1     34      0.3261           15.62    
     35      1      1     35      0.3301           15.62    
     36      1      1     36      0.3340           15.62    
     37      1      1     37      0.3365           15.62    
     38      1      1     38      0.3374           15.62    
     39      1      1     39      0.3370           15.62    
     40      1      1     40      0.3368           15.62    
     41      1      1     41      0.3368           15.62    
     42      1      1     42      0.3373           15.62    
     43      1      1     43      0.3383           15.62    
     44      1      1     44      0.3403           15.62    
     45      1      1     45      0.3423           15.62    
     46      1      1     46      0.3432           15.62    
     47      1      1     47      0.3432           15.62    
     48      1      1     48      0.3427           15.62    
     49      1      1     49      0.3409           15.62    
     50      1      1     50      0.3379           15.62    
     51      1      1     51      0.3343           15.62    
     52      1      1     52      0.3286           15.62    
     53      1      1     53      0.3224           15.62    
     54      1      1     54      0.3148           15.62    
     55      1      1     55      0.3072           15.62    
     56      1      1     56      0.3003           15.62    
     57      1      1     57      0.2926           15.62    
     58      1      1     58      0.2852           15.62    
     59      1      1     59      0.2786           15.62    
     60      1      1     60      0.2703           15.62    
     61      1      1     61      0.2632           15.62    
     62      1      1     62      0.2554           15.62    
     63      1      1     63      0.2480           15.62    
     64      1      1     64      0.2423           15.62    
     65      1      1     65      0.2365           15.62    
     66      1      1     66      0.2312           15.62    
     67      1      1     67      0.2269           15.62    
     68      1      1     68      0.2222           15.62    
     69      1      1     69      0.2181           15.62    
     70      1      1     70      0.2135           15.62    
     71      1      1     71      0.2088           15.62    
     72      1      1     72      0.2045           15.62    
     73      1      1     73      0.1995           15.62    
     74      1      1     74      0.1936           15.62    
     75      1      1     75      0.1881           15.62    
     76      1      1     76      0.1818           15.62    
     77      1      1     77      0.1766           15.62    
     78      1      1     78      0.1703           15.62    
     79      1      1     79      0.1635           15.62    
     80      1      1     80      0.1576           15.62    
     81      1      1     81      0.1510           15.62    
     82      1      1     82      0.1439           15.62    
     83      1      1     83      0.1376           15.62    
     84      1      1     84      0.1302           15.62    
     85      1      1     85      0.1231           15.62    
     86      1      1     86      0.1147           15.62    
     87      1      1     87      0.1067           15.62    
     88      1      1     88      0.9976E-01       15.62    
     89      1      1     89      0.9168E-01       15.62    
     90      1      1     90      0.8364E-01       15.62    
     91      1      1     91      0.7626E-01       15.62    
     92      1      1     92      0.6793E-01       15.62    
     93      1      1     93      0.6125E-01       15.62    
     94      1      1     94      0.5478E-01       15.62    
     95      1      1     95      0.4816E-01       15.62    
     96      1      1     96      0.4179E-01       15.62    
     97      1      1     97      0.3279E-01       15.62    
     98      1      1     98      0.2161E-01       15.62    
     99      1      1     99      0.7204E-02       15.62    
    100      1      1    100       0.000           15.62    
    101      1      2      1      0.3913           15.62    
    102      1      2      2      0.3922           15.62    
    103      1      2      3      0.3938           15.62    
    104      1      2      4      0.3965           15.62    
    105      1      2      5      0.3999           15.62    
    106      1      2      6      0.4025           15.62    
    107      1      2      7      0.4047           15.62    
    108      1      2      8      0.4059           15.62    
    109      1      2      9      0.4053           15.62    
    110      1      2     10      0.4027           15.62    
    111      1      2     11      0.3992           15.62    
    112      1      2     12      0.3938           15.62    
    113      1      2     13      0.3871           15.62    
    114      1      2     14      0.3803           15.62    
    115      1      2     15      0.3704           15.62    
    116      1      2     16      0.3595           15.62    
    117      1      2     17      0.3453           15.62    
    118      1      2     18      0.3303           15.62    
    119      1      2     19      0.3173           15.62    
    120      1      2     20      0.3050           15.62    
    121      1      2     21      0.2960           15.62    
    122      1      2     22      0.2899           15.62    
    123      1      2     23      0.2837           15.62    
    124      1      2     24      0.2789           15.62    
    125      1      2     25      0.2743           15.62    
    126      1      2     26      0.2719           15.62    
    127      1      2     27      0.2726           15.62    
    128      1      2     28      0.2766           15.62    
    129      1      2     29      0.2834           15.62    
    130      1      2     30      0.2910           15.62    
    131      1      2     31      0.3009           15.62    
    132      1      2     32      0.3095           15.62    
    133      1      2     33      0.3174           15.62    
    134      1      2     34      0.3222           15.62    
    135      1      2     35      0.3237           15.62    
    136      1      2     36      0.3243           15.62    
    137      1      2     37      0.3245           15.62    
    138      1      2     38      0.3251           15.62    
    139      1      2     39      0.3265           15.62    
    140      1      2     40      0.3272           15.62    
    141      1      2     41      0.3274           15.62    
    142      1      2     42      0.3280           15.62    
    143      1      2     43      0.3294           15.62    
    144      1      2     44      0.3322           15.62    
    145      1      2     45      0.3351           15.62    
    146      1      2     46      0.3370           15.62    
    147      1      2     47      0.3380           15.62    
    148      1      2     48      0.3379           15.62    
    149      1      2     49      0.3359           15.62    
    150      1      2     50      0.3320           15.62    
    151      1      2     51      0.3275           15.62    
    152      1      2     52      0.3212           15.62    
    153      1      2     53      0.3148           15.62    
    154      1      2     54      0.3071           15.62    
    155      1      2     55      0.2993           15.62    
    156      1      2     56      0.2923           15.62    
    157      1      2     57      0.2846           15.62    
    158      1      2     58      0.2772           15.62    
    159      1      2     59      0.2704           15.62    
    160      1      2     60      0.2623           15.62    
    161      1      2     61      0.2555           15.62    
    162      1      2     62      0.2482           15.62    
    163      1      2     63      0.2412           15.62    
    164      1      2     64      0.2355           15.62    
    165      1      2     65      0.2296           15.62    
    166      1      2     66      0.2239           15.62    
    167      1      2     67      0.2193           15.62    
    168      1      2     68      0.2143           15.62    
    169      1      2     69      0.2102           15.62    
    170      1      2     70      0.2056           15.62    
    171      1      2     71      0.2012           15.62    
    172      1      2     72      0.1974           15.62    
    173      1      2     73      0.1926           15.62    
    174      1      2     74      0.1874           15.62    
    175      1      2     75      0.1824           15.62    
    176      1      2     76      0.1762           15.62    
    177      1      2     77      0.1705           15.62    
    178      1      2     78      0.1635           15.62    
    179      1      2     79      0.1561           15.62    
    180      1      2     80      0.1499           15.62    
    181      1      2     81      0.1434           15.62    
    182      1      2     82      0.1360           15.62    
    183      1      2     83      0.1293           15.62    
    184      1      2     84      0.1214           15.62    
    185      1      2     85      0.1141           15.62    
    186      1      2     86      0.1061           15.62    
    187      1      2     87      0.9897E-01       15.62    
    188      1      2     88      0.9295E-01       15.62    
    189      1      2     89      0.8604E-01       15.62    
    190      1      2     90      0.7935E-01       15.62    
    191      1      2     91      0.7276E-01       15.62    
    192      1      2     92      0.6489E-01       15.62    
    193      1      2     93      0.5824E-01       15.62    
    194      1      2     94      0.5107E-01       15.62    
    195      1      2     95      0.4232E-01       15.62    
    196      1      2     96      0.3331E-01       15.62    
    197      1      2     97      0.2064E-01       15.62    
    198      1      2     98      0.8544E-02       15.62    
    199      1      2     99       0.000           15.62    
    200      1      2    100     -0.5911E-01       15.62    
    201      1      3      1      0.4115           15.62    
    202      1      3      2      0.4113           15.62    
    203      1      3      3      0.4120           15.62    
    204      1      3      4      0.4138           15.62    
    205      1      3      5      0.4163           15.62    
    206      1      3      6      0.4181           15.62    
    207      1      3      7      0.4195           15.62    
    208      1      3      8      0.4196           15.62    
    209      1      3      9      0.4177           15.62    
    210      1      3     10      0.4133           15.62    
    211      1      3     11      0.4082           15.62    
    212      1      3     12      0.4012           15.62    
    213      1      3     13      0.3932           15.62    
    214      1      3     14      0.3854           15.62    
    215      1      3     15      0.3752           15.62    
    216      1      3     16      0.3652           15.62    
    217      1      3     17      0.3530           15.62    
    218      1      3     18      0.3404           15.62    
    219      1      3     19      0.3296           15.62    
    220      1      3     20      0.3182           15.62    
    221      1      3     21      0.3077           15.62    
    222      1      3     22      0.2987           15.62    
    223      1      3     23      0.2890           15.62    
    224      1      3     24      0.2810           15.62    
    225      1      3     25      0.2728           15.62    
    226      1      3     26      0.2669           15.62    
    227      1      3     27      0.2660           15.62    
    228      1      3     28      0.2689           15.62    
    229      1      3     29      0.2754           15.62    
    230      1      3     30      0.2834           15.62    
    231      1      3     31      0.2948           15.62    
    232      1      3     32      0.3052           15.62    
    233      1      3     33      0.3141           15.62    
    234      1      3     34      0.3172           15.62    
    235      1      3     35      0.3143           15.62    
    236      1      3     36      0.3098           15.62    
    237      1      3     37      0.3063           15.62    
    238      1      3     38      0.3061           15.62    
    239      1      3     39      0.3091           15.62    
    240      1      3     40      0.3112           15.62    
    241      1      3     41      0.3127           15.62    
    242      1      3     42      0.3144           15.62    
    243      1      3     43      0.3167           15.62    
    244      1      3     44      0.3204           15.62    
    245      1      3     45      0.3245           15.62    
    246      1      3     46      0.3277           15.62    
    247      1      3     47      0.3305           15.62    
    248      1      3     48      0.3315           15.62    
    249      1      3     49      0.3295           15.62    
    250      1      3     50      0.3247           15.62    
    251      1      3     51      0.3192           15.62    
    252      1      3     52      0.3122           15.62    
    253      1      3     53      0.3055           15.62    
    254      1      3     54      0.2977           15.62    
    255      1      3     55      0.2900           15.62    
    256      1      3     56      0.2831           15.62    
    257      1      3     57      0.2759           15.62    
    258      1      3     58      0.2683           15.62    
    259      1      3     59      0.2612           15.62    
    260      1      3     60      0.2535           15.62    
    261      1      3     61      0.2472           15.62    
    262      1      3     62      0.2403           15.62    
    263      1      3     63      0.2336           15.62    
    264      1      3     64      0.2280           15.62    
    265      1      3     65      0.2220           15.62    
    266      1      3     66      0.2162           15.62    
    267      1      3     67      0.2112           15.62    
    268      1      3     68      0.2060           15.62    
    269      1      3     69      0.2019           15.62    
    270      1      3     70      0.1975           15.62    
    271      1      3     71      0.1934           15.62    
    272      1      3     72      0.1897           15.62    
    273      1      3     73      0.1853           15.62    
    274      1      3     74      0.1810           15.62    
    275      1      3     75      0.1767           15.62    
    276      1      3     76      0.1706           15.62    
    277      1      3     77      0.1643           15.62    
    278      1      3     78      0.1565           15.62    
    279      1      3     79      0.1488           15.62    
    280      1      3     80      0.1425           15.62    
    281      1      3     81      0.1357           15.62    
    282      1      3     82      0.1279           15.62    
    283      1      3     83      0.1208           15.62    
    284      1      3     84      0.1125           15.62    
    285      1      3     85      0.1051           15.62    
    286      1      3     86      0.9746E-01       15.62    
    287      1      3     87      0.9132E-01       15.62    
    288      1      3     88      0.8641E-01       15.62    
    289      1      3     89      0.8056E-01       15.62    
    290      1      3     90      0.7421E-01       15.62    
    291      1      3     91      0.6800E-01       15.62    
    292      1      3     92      0.6032E-01       15.62    
    293      1      3     93      0.5337E-01       15.62    
    294      1      3     94      0.4518E-01       15.62    
    295      1      3     95      0.3411E-01       15.62    
    296      1      3     96      0.2197E-01       15.62    
    297      1      3     97      0.8253E-02       15.62    
    298      1      3     98       0.000           15.62    
    299      1      3     99     -0.5216E-01       15.62    
    300      1      3    100     -0.8953E-01       15.62    
    301      1      4      1      0.4282           15.62    
    302      1      4      2      0.4272           15.62    
    303      1      4      3      0.4272           15.62    
    304      1      4      4      0.4282           15.62    
    305      1      4      5      0.4300           15.62    
    306      1      4      6      0.4313           15.62    
    307      1      4      7      0.4321           15.62    
    308      1      4      8      0.4313           15.62    
    309      1      4      9      0.4281           15.62    
    310      1      4     10      0.4220           15.62    
    311      1      4     11      0.4155           15.62    
    312      1      4     12      0.4071           15.62    
    313      1      4     13      0.3978           15.62    
    314      1      4     14      0.3892           15.62    
    315      1      4     15      0.3790           15.62    
    316      1      4     16      0.3698           15.62    
    317      1      4     17      0.3590           15.62    
    318      1      4     18      0.3485           15.62    
    319      1      4     19      0.3396           15.62    
    320      1      4     20      0.3291           15.62    
    321      1      4     21      0.3177           15.62    
    322      1      4     22      0.3063           15.62    
    323      1      4     23      0.2937           15.62    
    324      1      4     24      0.2832           15.62    
    325      1      4     25      0.2722           15.62    
    326      1      4     26      0.2635           15.62    
    327      1      4     27      0.2601           15.62    
    328      1      4     28      0.2609           15.62    
    329      1      4     29      0.2663           15.62    
    330      1      4     30      0.2744           15.62    
    331      1      4     31      0.2869           15.62    
    332      1      4     32      0.2993           15.62    
    333      1      4     33      0.3096           15.62    
    334      1      4     34      0.3110           15.62    
    335      1      4     35      0.3032           15.62    
    336      1      4     36      0.2932           15.62    
    337      1      4     37      0.2859           15.62    
    338      1      4     38      0.2843           15.62    
    339      1      4     39      0.2885           15.62    
    340      1      4     40      0.2922           15.62    
    341      1      4     41      0.2958           15.62    
    342      1      4     42      0.2994           15.62    
    343      1      4     43      0.3028           15.62    
    344      1      4     44      0.3075           15.62    
    345      1      4     45      0.3127           15.62    
    346      1      4     46      0.3173           15.62    
    347      1      4     47      0.3220           15.62    
    348      1      4     48      0.3246           15.62    
    349      1      4     49      0.3225           15.62    
    350      1      4     50      0.3165           15.62    
    351      1      4     51      0.3102           15.62    
    352      1      4     52      0.3029           15.62    
    353      1      4     53      0.2960           15.62    
    354      1      4     54      0.2882           15.62    
    355      1      4     55      0.2807           15.62    
    356      1      4     56      0.2739           15.62    
    357      1      4     57      0.2670           15.62    
    358      1      4     58      0.2597           15.62    
    359      1      4     59      0.2527           15.62    
    360      1      4     60      0.2454           15.62    
    361      1      4     61      0.2396           15.62    
    362      1      4     62      0.2330           15.62    
    363      1      4     63      0.2264           15.62    
    364      1      4     64      0.2209           15.62    
    365      1      4     65      0.2149           15.62    
    366      1      4     66      0.2088           15.62    
    367      1      4     67      0.2037           15.62    
    368      1      4     68      0.1984           15.62    
    369      1      4     69      0.1942           15.62    
    370      1      4     70      0.1899           15.62    
    371      1      4     71      0.1859           15.62    
    372      1      4     72      0.1821           15.62    
    373      1      4     73      0.1782           15.62    
    374      1      4     74      0.1748           15.62    
    375      1      4     75      0.1712           15.62    
    376      1      4     76      0.1655           15.62    
    377      1      4     77      0.1584           15.62    
    378      1      4     78      0.1499           15.62    
    379      1      4     79      0.1419           15.62    
    380      1      4     80      0.1356           15.62    
    381      1      4     81      0.1282           15.62    
    382      1      4     82      0.1203           15.62    
    383      1      4     83      0.1132           15.62    
    384      1      4     84      0.1050           15.62    
    385      1      4     85      0.9767E-01       15.62    
    386      1      4     86      0.9029E-01       15.62    
    387      1      4     87      0.8503E-01       15.62    
    388      1      4     88      0.8086E-01       15.62    
    389      1      4     89      0.7507E-01       15.62    
    390      1      4     90      0.6880E-01       15.62    
    391      1      4     91      0.6320E-01       15.62    
    392      1      4     92      0.5551E-01       15.62    
    393      1      4     93      0.4725E-01       15.62    
    394      1      4     94      0.3691E-01       15.62    
    395      1      4     95      0.2342E-01       15.62    
    396      1      4     96      0.1036E-01       15.62    
    397      1      4     97       0.000           15.62    
    398      1      4     98     -0.4253E-01       15.62    
    399      1      4     99     -0.8103E-01       15.62    
    400      1      4    100     -0.1109           15.62    
    401      1      5      1      0.4453           15.62    
    402      1      5      2      0.4436           15.62    
    403      1      5      3      0.4430           15.62    
    404      1      5      4      0.4434           15.62    
    405      1      5      5      0.4446           15.62    
    406      1      5      6      0.4452           15.62    
    407      1      5      7      0.4452           15.62    
    408      1      5      8      0.4432           15.62    
    409      1      5      9      0.4387           15.62    
    410      1      5     10      0.4308           15.62    
    411      1      5     11      0.4229           15.62    
    412      1      5     12      0.4129           15.62    
    413      1      5     13      0.4023           15.62    
    414      1      5     14      0.3928           15.62    
    415      1      5     15      0.3826           15.62    
    416      1      5     16      0.3740           15.62    
    417      1      5     17      0.3645           15.62    
    418      1      5     18      0.3556           15.62    
    419      1      5     19      0.3482           15.62    
    420      1      5     20      0.3386           15.62    
    421      1      5     21      0.3264           15.62    
    422      1      5     22      0.3132           15.62    
    423      1      5     23      0.2982           15.62    
    424      1      5     24      0.2856           15.62    
    425      1      5     25      0.2722           15.62    
    426      1      5     26      0.2606           15.62    
    427      1      5     27      0.2535           15.62    
    428      1      5     28      0.2501           15.62    
    429      1      5     29      0.2527           15.62    
    430      1      5     30      0.2603           15.62    
    431      1      5     31      0.2733           15.62    
    432      1      5     32      0.2867           15.62    
    433      1      5     33      0.2980           15.62    
    434      1      5     34      0.2977           15.62    
    435      1      5     35      0.2846           15.62    
    436      1      5     36      0.2692           15.62    
    437      1      5     37      0.2578           15.62    
    438      1      5     38      0.2544           15.62    
    439      1      5     39      0.2603           15.62    
    440      1      5     40      0.2662           15.62    
    441      1      5     41      0.2728           15.62    
    442      1      5     42      0.2792           15.62    
    443      1      5     43      0.2844           15.62    
    444      1      5     44      0.2903           15.62    
    445      1      5     45      0.2966           15.62    
    446      1      5     46      0.3023           15.62    
    447      1      5     47      0.3086           15.62    
    448      1      5     48      0.3128           15.62    
    449      1      5     49      0.3109           15.62    
    450      1      5     50      0.3040           15.62    
    451      1      5     51      0.2975           15.62    
    452      1      5     52      0.2902           15.62    
    453      1      5     53      0.2835           15.62    
    454      1      5     54      0.2760           15.62    
    455      1      5     55      0.2686           15.62    
    456      1      5     56      0.2622           15.62    
    457      1      5     57      0.2559           15.62    
    458      1      5     58      0.2489           15.62    
    459      1      5     59      0.2421           15.62    
    460      1      5     60      0.2355           15.62    
    461      1      5     61      0.2301           15.62    
    462      1      5     62      0.2240           15.62    
    463      1      5     63      0.2177           15.62    
    464      1      5     64      0.2123           15.62    
    465      1      5     65      0.2062           15.62    
    466      1      5     66      0.1997           15.62    
    467      1      5     67      0.1943           15.62    
    468      1      5     68      0.1890           15.62    
    469      1      5     69      0.1849           15.62    
    470      1      5     70      0.1802           15.62    
    471      1      5     71      0.1760           15.62    
    472      1      5     72      0.1725           15.62    
    473      1      5     73      0.1692           15.62    
    474      1      5     74      0.1664           15.62    
    475      1      5     75      0.1635           15.62    
    476      1      5     76      0.1581           15.62    
    477      1      5     77      0.1502           15.62    
    478      1      5     78      0.1412           15.62    
    479      1      5     79      0.1330           15.62    
    480      1      5     80      0.1265           15.62    
    481      1      5     81      0.1188           15.62    
    482      1      5     82      0.1113           15.62    
    483      1      5     83      0.1048           15.62    
    484      1      5     84      0.9716E-01       15.62    
    485      1      5     85      0.9037E-01       15.62    
    486      1      5     86      0.8347E-01       15.62    
    487      1      5     87      0.7887E-01       15.62    
    488      1      5     88      0.7524E-01       15.62    
    489      1      5     89      0.6925E-01       15.62    
    490      1      5     90      0.6233E-01       15.62    
    491      1      5     91      0.5570E-01       15.62    
    492      1      5     92      0.4648E-01       15.62    
    493      1      5     93      0.3665E-01       15.62    
    494      1      5     94      0.2376E-01       15.62    
    495      1      5     95      0.8694E-02       15.62    
    496      1      5     96       0.000           15.62    
    497      1      5     97     -0.4517E-01       15.62    
    498      1      5     98     -0.7794E-01       15.62    
    499      1      5     99     -0.1048           15.62    
    500      1      5    100     -0.1273           15.62    
    501      1      6      1      0.4592           15.62    
    502      1      6      2      0.4575           15.62    
    503      1      6      3      0.4568           15.62    
    504      1      6      4      0.4569           15.62    
    505      1      6      5      0.4576           15.62    
    506      1      6      6      0.4576           15.62    
    507      1      6      7      0.4564           15.62    
    508      1      6      8      0.4529           15.62    
    509      1      6      9      0.4471           15.62    
    510      1      6     10      0.4379           15.62    
    511      1      6     11      0.4288           15.62    
    512      1      6     12      0.4175           15.62    
    513      1      6     13      0.4057           15.62    
    514      1      6     14      0.3954           15.62    
    515      1      6     15      0.3848           15.62    
    516      1      6     16      0.3764           15.62    
    517      1      6     17      0.3675           15.62    
    518      1      6     18      0.3596           15.62    
    519      1      6     19      0.3529           15.62    
    520      1      6     20      0.3437           15.62    
    521      1      6     21      0.3313           15.62    
    522      1      6     22      0.3174           15.62    
    523      1      6     23      0.3012           15.62    
    524      1      6     24      0.2873           15.62    
    525      1      6     25      0.2721           15.62    
    526      1      6     26      0.2579           15.62    
    527      1      6     27      0.2468           15.62    
    528      1      6     28      0.2375           15.62    
    529      1      6     29      0.2358           15.62    
    530      1      6     30      0.2433           15.62    
    531      1      6     31      0.2552           15.62    
    532      1      6     32      0.2661           15.62    
    533      1      6     33      0.2736           15.62    
    534      1      6     34      0.2703           15.62    
    535      1      6     35      0.2579           15.62    
    536      1      6     36      0.2425           15.62    
    537      1      6     37      0.2308           15.62    
    538      1      6     38      0.2276           15.62    
    539      1      6     39      0.2336           15.62    
    540      1      6     40      0.2408           15.62    
    541      1      6     41      0.2494           15.62    
    542      1      6     42      0.2578           15.62    
    543      1      6     43      0.2642           15.62    
    544      1      6     44      0.2710           15.62    
    545      1      6     45      0.2777           15.62    
    546      1      6     46      0.2835           15.62    
    547      1      6     47      0.2896           15.62    
    548      1      6     48      0.2936           15.62    
    549      1      6     49      0.2927           15.62    
    550      1      6     50      0.2871           15.62    
    551      1      6     51      0.2816           15.62    
    552      1      6     52      0.2751           15.62    
    553      1      6     53      0.2692           15.62    
    554      1      6     54      0.2623           15.62    
    555      1      6     55      0.2554           15.62    
    556      1      6     56      0.2499           15.62    
    557      1      6     57      0.2436           15.62    
    558      1      6     58      0.2368           15.62    
    559      1      6     59      0.2306           15.62    
    560      1      6     60      0.2248           15.62    
    561      1      6     61      0.2198           15.62    
    562      1      6     62      0.2142           15.62    
    563      1      6     63      0.2083           15.62    
    564      1      6     64      0.2030           15.62    
    565      1      6     65      0.1966           15.62    
    566      1      6     66      0.1899           15.62    
    567      1      6     67      0.1844           15.62    
    568      1      6     68      0.1791           15.62    
    569      1      6     69      0.1746           15.62    
    570      1      6     70      0.1696           15.62    
    571      1      6     71      0.1653           15.62    
    572      1      6     72      0.1621           15.62    
    573      1      6     73      0.1586           15.62    
    574      1      6     74      0.1553           15.62    
    575      1      6     75      0.1518           15.62    
    576      1      6     76      0.1462           15.62    
    577      1      6     77      0.1390           15.62    
    578      1      6     78      0.1307           15.62    
    579      1      6     79      0.1224           15.62    
    580      1      6     80      0.1156           15.62    
    581      1      6     81      0.1086           15.62    
    582      1      6     82      0.1021           15.62    
    583      1      6     83      0.9642E-01       15.62    
    584      1      6     84      0.8988E-01       15.62    
    585      1      6     85      0.8392E-01       15.62    
    586      1      6     86      0.7780E-01       15.62    
    587      1      6     87      0.7317E-01       15.62    
    588      1      6     88      0.6907E-01       15.62    
    589      1      6     89      0.6223E-01       15.62    
    590      1      6     90      0.5410E-01       15.62    
    591      1      6     91      0.4560E-01       15.62    
    592      1      6     92      0.3384E-01       15.62    
    593      1      6     93      0.2190E-01       15.62    
    594      1      6     94      0.7307E-02       15.62    
    595      1      6     95       0.000           15.62    
    596      1      6     96     -0.4403E-01       15.62    
    597      1      6     97     -0.7934E-01       15.62    
    598      1      6     98     -0.1005           15.62    
    599      1      6     99     -0.1220           15.62    
    600      1      6    100     -0.1407           15.62    
    601      1      7      1      0.4692           15.62    
    602      1      7      2      0.4678           15.62    
    603      1      7      3      0.4673           15.62    
    604      1      7      4      0.4673           15.62    
    605      1      7      5      0.4678           15.62    
    606      1      7      6      0.4675           15.62    
    607      1      7      7      0.4654           15.62    
    608      1      7      8      0.4607           15.62    
    609      1      7      9      0.4535           15.62    
    610      1      7     10      0.4428           15.62    
    611      1      7     11      0.4324           15.62    
    612      1      7     12      0.4200           15.62    
    613      1      7     13      0.4075           15.62    
    614      1      7     14      0.3967           15.62    
    615      1      7     15      0.3853           15.62    
    616      1      7     16      0.3763           15.62    
    617      1      7     17      0.3674           15.62    
    618      1      7     18      0.3599           15.62    
    619      1      7     19      0.3536           15.62    
    620      1      7     20      0.3446           15.62    
    621      1      7     21      0.3322           15.62    
    622      1      7     22      0.3185           15.62    
    623      1      7     23      0.3020           15.62    
    624      1      7     24      0.2876           15.62    
    625      1      7     25      0.2716           15.62    
    626      1      7     26      0.2556           15.62    
    627      1      7     27      0.2417           15.62    
    628      1      7     28      0.2279           15.62    
    629      1      7     29      0.2224           15.62    
    630      1      7     30      0.2290           15.62    
    631      1      7     31      0.2387           15.62    
    632      1      7     32      0.2458           15.62    
    633      1      7     33      0.2490           15.62    
    634      1      7     34      0.2435           15.62    
    635      1      7     35      0.2324           15.62    
    636      1      7     36      0.2182           15.62    
    637      1      7     37      0.2076           15.62    
    638      1      7     38      0.2055           15.62    
    639      1      7     39      0.2120           15.62    
    640      1      7     40      0.2202           15.62    
    641      1      7     41      0.2302           15.62    
    642      1      7     42      0.2396           15.62    
    643      1      7     43      0.2465           15.62    
    644      1      7     44      0.2532           15.62    
    645      1      7     45      0.2596           15.62    
    646      1      7     46      0.2646           15.62    
    647      1      7     47      0.2694           15.62    
    648      1      7     48      0.2724           15.62    
    649      1      7     49      0.2725           15.62    
    650      1      7     50      0.2693           15.62    
    651      1      7     51      0.2655           15.62    
    652      1      7     52      0.2603           15.62    
    653      1      7     53      0.2552           15.62    
    654      1      7     54      0.2492           15.62    
    655      1      7     55      0.2433           15.62    
    656      1      7     56      0.2387           15.62    
    657      1      7     57      0.2320           15.62    
    658      1      7     58      0.2252           15.62    
    659      1      7     59      0.2201           15.62    
    660      1      7     60      0.2147           15.62    
    661      1      7     61      0.2102           15.62    
    662      1      7     62      0.2050           15.62    
    663      1      7     63      0.1995           15.62    
    664      1      7     64      0.1944           15.62    
    665      1      7     65      0.1876           15.62    
    666      1      7     66      0.1807           15.62    
    667      1      7     67      0.1752           15.62    
    668      1      7     68      0.1696           15.62    
    669      1      7     69      0.1648           15.62    
    670      1      7     70      0.1599           15.62    
    671      1      7     71      0.1556           15.62    
    672      1      7     72      0.1519           15.62    
    673      1      7     73      0.1477           15.62    
    674      1      7     74      0.1436           15.62    
    675      1      7     75      0.1396           15.62    
    676      1      7     76      0.1340           15.62    
    677      1      7     77      0.1278           15.62    
    678      1      7     78      0.1201           15.62    
    679      1      7     79      0.1119           15.62    
    680      1      7     80      0.1052           15.62    
    681      1      7     81      0.9924E-01       15.62    
    682      1      7     82      0.9380E-01       15.62    
    683      1      7     83      0.8900E-01       15.62    
    684      1      7     84      0.8319E-01       15.62    
    685      1      7     85      0.7770E-01       15.62    
    686      1      7     86      0.7259E-01       15.62    
    687      1      7     87      0.6745E-01       15.62    
    688      1      7     88      0.6189E-01       15.62    
    689      1      7     89      0.5383E-01       15.62    
    690      1      7     90      0.4454E-01       15.62    
    691      1      7     91      0.3432E-01       15.62    
    692      1      7     92      0.1993E-01       15.62    
    693      1      7     93      0.6895E-02       15.62    
    694      1      7     94       0.000           15.62    
    695      1      7     95       0.000           15.62    
    696      1      7     96     -0.7501E-01       15.62    
    697      1      7     97     -0.9975E-01       15.62    
    698      1      7     98     -0.1192           15.62    
    699      1      7     99     -0.1401           15.62    
    700      1      7    100     -0.1727           15.62    
    701      1      8      1      0.4782           15.62    
    702      1      8      2      0.4776           15.62    
    703      1      8      3      0.4773           15.62    
    704      1      8      4      0.4775           15.62    
    705      1      8      5      0.4779           15.62    
    706      1      8      6      0.4775           15.62    
    707      1      8      7      0.4750           15.62    
    708      1      8      8      0.4691           15.62    
    709      1      8      9      0.4599           15.62    
    710      1      8     10      0.4463           15.62    
    711      1      8     11      0.4339           15.62    
    712      1      8     12      0.4201           15.62    
    713      1      8     13      0.4072           15.62    
    714      1      8     14      0.3957           15.62    
    715      1      8     15      0.3828           15.62    
    716      1      8     16      0.3726           15.62    
    717      1      8     17      0.3634           15.62    
    718      1      8     18      0.3565           15.62    
    719      1      8     19      0.3515           15.62    
    720      1      8     20      0.3437           15.62    
    721      1      8     21      0.3314           15.62    
    722      1      8     22      0.3171           15.62    
    723      1      8     23      0.3002           15.62    
    724      1      8     24      0.2859           15.62    
    725      1      8     25      0.2702           15.62    
    726      1      8     26      0.2537           15.62    
    727      1      8     27      0.2385           15.62    
    728      1      8     28      0.2238           15.62    
    729      1      8     29      0.2161           15.62    
    730      1      8     30      0.2177           15.62    
    731      1      8     31      0.2223           15.62    
    732      1      8     32      0.2251           15.62    
    733      1      8     33      0.2242           15.62    
    734      1      8     34      0.2165           15.62    
    735      1      8     35      0.2050           15.62    
    736      1      8     36      0.1907           15.62    
    737      1      8     37      0.1806           15.62    
    738      1      8     38      0.1804           15.62    
    739      1      8     39      0.1894           15.62    
    740      1      8     40      0.1993           15.62    
    741      1      8     41      0.2107           15.62    
    742      1      8     42      0.2206           15.62    
    743      1      8     43      0.2273           15.62    
    744      1      8     44      0.2332           15.62    
    745      1      8     45      0.2384           15.62    
    746      1      8     46      0.2423           15.62    
    747      1      8     47      0.2454           15.62    
    748      1      8     48      0.2477           15.62    
    749      1      8     49      0.2489           15.62    
    750      1      8     50      0.2478           15.62    
    751      1      8     51      0.2458           15.62    
    752      1      8     52      0.2425           15.62    
    753      1      8     53      0.2386           15.62    
    754      1      8     54      0.2335           15.62    
    755      1      8     55      0.2283           15.62    
    756      1      8     56      0.2247           15.62    
    757      1      8     57      0.2183           15.62    
    758      1      8     58      0.2117           15.62    
    759      1      8     59      0.2076           15.62    
    760      1      8     60      0.2026           15.62    
    761      1      8     61      0.1985           15.62    
    762      1      8     62      0.1937           15.62    
    763      1      8     63      0.1886           15.62    
    764      1      8     64      0.1836           15.62    
    765      1      8     65      0.1765           15.62    
    766      1      8     66      0.1693           15.62    
    767      1      8     67      0.1637           15.62    
    768      1      8     68      0.1579           15.62    
    769      1      8     69      0.1530           15.62    
    770      1      8     70      0.1482           15.62    
    771      1      8     71      0.1438           15.62    
    772      1      8     72      0.1393           15.62    
    773      1      8     73      0.1341           15.62    
    774      1      8     74      0.1293           15.62    
    775      1      8     75      0.1250           15.62    
    776      1      8     76      0.1197           15.62    
    777      1      8     77      0.1147           15.62    
    778      1      8     78      0.1079           15.62    
    779      1      8     79      0.1000           15.62    
    780      1      8     80      0.9346E-01       15.62    
    781      1      8     81      0.8885E-01       15.62    
    782      1      8     82      0.8443E-01       15.62    
    783      1      8     83      0.8025E-01       15.62    
    784      1      8     84      0.7495E-01       15.62    
    785      1      8     85      0.6975E-01       15.62    
    786      1      8     86      0.6418E-01       15.62    
    787      1      8     87      0.5803E-01       15.62    
    788      1      8     88      0.5140E-01       15.62    
    789      1      8     89      0.4222E-01       15.62    
    790      1      8     90      0.3136E-01       15.62    
    791      1      8     91      0.1844E-01       15.62    
    792      1      8     92      0.1865E-02       15.62    
    793      1      8     93       0.000           15.62    
    794      1      8     94       0.000           15.62    
    795      1      8     95     -0.8038E-01       15.62    
    796      1      8     96     -0.1007           15.62    
    797      1      8     97     -0.1204           15.62    
    798      1      8     98     -0.1363           15.62    
    799      1      8     99     -0.1683           15.62    
    800      1      8    100     -0.2581           15.62    
    801      1      9      1      0.4846           15.62    
    802      1      9      2      0.4845           15.62    
    803      1      9      3      0.4845           15.62    
    804      1      9      4      0.4848           15.62    
    805      1      9      5      0.4851           15.62    
    806      1      9      6      0.4846           15.62    
    807      1      9      7      0.4824           15.62    
    808      1      9      8      0.4759           15.62    
    809      1      9      9      0.4639           15.62    
    810      1      9     10      0.4469           15.62    
    811      1      9     11      0.4321           15.62    
    812      1      9     12      0.4168           15.62    
    813      1      9     13      0.4038           15.62    
    814      1      9     14      0.3913           15.62    
    815      1      9     15      0.3767           15.62    
    816      1      9     16      0.3652           15.62    
    817      1      9     17      0.3556           15.62    
    818      1      9     18      0.3493           15.62    
    819      1      9     19      0.3456           15.62    
    820      1      9     20      0.3394           15.62    
    821      1      9     21      0.3271           15.62    
    822      1      9     22      0.3120           15.62    
    823      1      9     23      0.2950           15.62    
    824      1      9     24      0.2811           15.62    
    825      1      9     25      0.2665           15.62    
    826      1      9     26      0.2508           15.62    
    827      1      9     27      0.2357           15.62    
    828      1      9     28      0.2211           15.62    
    829      1      9     29      0.2124           15.62    
    830      1      9     30      0.2106           15.62    
    831      1      9     31      0.2111           15.62    
    832      1      9     32      0.2110           15.62    
    833      1      9     33      0.2077           15.62    
    834      1      9     34      0.1986           15.62    
    835      1      9     35      0.1858           15.62    
    836      1      9     36      0.1688           15.62    
    837      1      9     37      0.1574           15.62    
    838      1      9     38      0.1597           15.62    
    839      1      9     39      0.1728           15.62    
    840      1      9     40      0.1848           15.62    
    841      1      9     41      0.1968           15.62    
    842      1      9     42      0.2062           15.62    
    843      1      9     43      0.2122           15.62    
    844      1      9     44      0.2168           15.62    
    845      1      9     45      0.2205           15.62    
    846      1      9     46      0.2230           15.62    
    847      1      9     47      0.2249           15.62    
    848      1      9     48      0.2270           15.62    
    849      1      9     49      0.2288           15.62    
    850      1      9     50      0.2291           15.62    
    851      1      9     51      0.2283           15.62    
    852      1      9     52      0.2264           15.62    
    853      1      9     53      0.2234           15.62    
    854      1      9     54      0.2192           15.62    
    855      1      9     55      0.2146           15.62    
    856      1      9     56      0.2109           15.62    
    857      1      9     57      0.2055           15.62    
    858      1      9     58      0.2002           15.62    
    859      1      9     59      0.1961           15.62    
    860      1      9     60      0.1912           15.62    
    861      1      9     61      0.1874           15.62    
    862      1      9     62      0.1830           15.62    
    863      1      9     63      0.1778           15.62    
    864      1      9     64      0.1726           15.62    
    865      1      9     65      0.1657           15.62    
    866      1      9     66      0.1583           15.62    
    867      1      9     67      0.1525           15.62    
    868      1      9     68      0.1473           15.62    
    869      1      9     69      0.1425           15.62    
    870      1      9     70      0.1372           15.62    
    871      1      9     71      0.1322           15.62    
    872      1      9     72      0.1275           15.62    
    873      1      9     73      0.1217           15.62    
    874      1      9     74      0.1164           15.62    
    875      1      9     75      0.1121           15.62    
    876      1      9     76      0.1077           15.62    
    877      1      9     77      0.1036           15.62    
    878      1      9     78      0.9777E-01       15.62    
    879      1      9     79      0.9066E-01       15.62    
    880      1      9     80      0.8461E-01       15.62    
    881      1      9     81      0.8050E-01       15.62    
    882      1      9     82      0.7650E-01       15.62    
    883      1      9     83      0.7250E-01       15.62    
    884      1      9     84      0.6717E-01       15.62    
    885      1      9     85      0.6218E-01       15.62    
    886      1      9     86      0.5563E-01       15.62    
    887      1      9     87      0.4796E-01       15.62    
    888      1      9     88      0.3998E-01       15.62    
    889      1      9     89      0.2944E-01       15.62    
    890      1      9     90      0.1802E-01       15.62    
    891      1      9     91      0.3275E-02       15.62    
    892      1      9     92       0.000           15.62    
    893      1      9     93       0.000           15.62    
    894      1      9     94     -0.7698E-01       15.62    
    895      1      9     95     -0.1038           15.62    
    896      1      9     96     -0.1242           15.62    
    897      1      9     97     -0.1357           15.62    
    898      1      9     98     -0.1550           15.62    
    899      1      9     99     -0.2520           15.62    
    900      1      9    100     -0.2207           15.62    
    901      1     10      1      0.4910           15.62    
    902      1     10      2      0.4909           15.62    
    903      1     10      3      0.4909           15.62    
    904      1     10      4      0.4908           15.62    
    905      1     10      5      0.4905           15.62    
    906      1     10      6      0.4898           15.62    
    907      1     10      7      0.4881           15.62    
    908      1     10      8      0.4815           15.62    
    909      1     10      9      0.4647           15.62    
    910      1     10     10      0.4426           15.62    
    911      1     10     11      0.4242           15.62    
    912      1     10     12      0.4065           15.62    
    913      1     10     13      0.3934           15.62    
    914      1     10     14      0.3794           15.62    
    915      1     10     15      0.3629           15.62    
    916      1     10     16      0.3505           15.62    
    917      1     10     17      0.3411           15.62    
    918      1     10     18      0.3353           15.62    
    919      1     10     19      0.3326           15.62    
    920      1     10     20      0.3275           15.62    
    921      1     10     21      0.3154           15.62    
    922      1     10     22      0.3006           15.62    
    923      1     10     23      0.2842           15.62    
    924      1     10     24      0.2709           15.62    
    925      1     10     25      0.2572           15.62    
    926      1     10     26      0.2427           15.62    
    927      1     10     27      0.2289           15.62    
    928      1     10     28      0.2155           15.62    
    929      1     10     29      0.2067           15.62    
    930      1     10     30      0.2028           15.62    
    931      1     10     31      0.2007           15.62    
    932      1     10     32      0.1990           15.62    
    933      1     10     33      0.1952           15.62    
    934      1     10     34      0.1867           15.62    
    935      1     10     35      0.1746           15.62    
    936      1     10     36      0.1550           15.62    
    937      1     10     37      0.1413           15.62    
    938      1     10     38      0.1471           15.62    
    939      1     10     39      0.1633           15.62    
    940      1     10     40      0.1758           15.62    
    941      1     10     41      0.1863           15.62    
    942      1     10     42      0.1935           15.62    
    943      1     10     43      0.1976           15.62    
    944      1     10     44      0.2002           15.62    
    945      1     10     45      0.2017           15.62    
    946      1     10     46      0.2024           15.62    
    947      1     10     47      0.2028           15.62    
    948      1     10     48      0.2048           15.62    
    949      1     10     49      0.2073           15.62    
    950      1     10     50      0.2087           15.62    
    951      1     10     51      0.2090           15.62    
    952      1     10     52      0.2079           15.62    
    953      1     10     53      0.2058           15.62    
    954      1     10     54      0.2026           15.62    
    955      1     10     55      0.1986           15.62    
    956      1     10     56      0.1948           15.62    
    957      1     10     57      0.1904           15.62    
    958      1     10     58      0.1862           15.62    
    959      1     10     59      0.1821           15.62    
    960      1     10     60      0.1775           15.62    
    961      1     10     61      0.1740           15.62    
    962      1     10     62      0.1699           15.62    
    963      1     10     63      0.1649           15.62    
    964      1     10     64      0.1595           15.62    
    965      1     10     65      0.1526           15.62    
    966      1     10     66      0.1451           15.62    
    967      1     10     67      0.1389           15.62    
    968      1     10     68      0.1335           15.62    
    969      1     10     69      0.1289           15.62    
    970      1     10     70      0.1239           15.62    
    971      1     10     71      0.1190           15.62    
    972      1     10     72      0.1141           15.62    
    973      1     10     73      0.1077           15.62    
    974      1     10     74      0.1018           15.62    
    975      1     10     75      0.9769E-01       15.62    
    976      1     10     76      0.9470E-01       15.62    
    977      1     10     77      0.9187E-01       15.62    
    978      1     10     78      0.8740E-01       15.62    
    979      1     10     79      0.8168E-01       15.62    
    980      1     10     80      0.7663E-01       15.62    
    981      1     10     81      0.7193E-01       15.62    
    982      1     10     82      0.6758E-01       15.62    
    983      1     10     83      0.6340E-01       15.62    
    984      1     10     84      0.5770E-01       15.62    
    985      1     10     85      0.5233E-01       15.62    
    986      1     10     86      0.4414E-01       15.62    
    987      1     10     87      0.3412E-01       15.62    
    988      1     10     88      0.2380E-01       15.62    
    989      1     10     89      0.1137E-01       15.62    
    990      1     10     90       0.000           15.62    
    991      1     10     91       0.000           15.62    
    992      1     10     92       0.000           15.62    
    993      1     10     93     -0.8005E-01       15.62    
    994      1     10     94     -0.1037           15.62    
    995      1     10     95     -0.1303           15.62    
    996      1     10     96     -0.1401           15.62    
    997      1     10     97     -0.1600           15.62    
    998      1     10     98     -0.2419           15.62    
    999      1     10     99     -0.2095           15.62    
   1000      1     10    100     -0.1550           15.62    
   1001      1     11      1      0.4964           15.62    
   1002      1     11      2      0.4960           15.62    
   1003      1     11      3      0.4955           15.62    
   1004      1     11      4      0.4946           15.62    
   1005      1     11      5      0.4931           15.62    
   1006      1     11      6      0.4907           15.62    
   1007      1     11      7      0.4860           15.62    
   1008      1     11      8      0.4755           15.62    
   1009      1     11      9      0.4569           15.62    
   1010      1     11     10      0.4316           15.62    
   1011      1     11     11      0.4092           15.62    
   1012      1     11     12      0.3863           15.62    
   1013      1     11     13      0.3678           15.62    
   1014      1     11     14      0.3528           15.62    
   1015      1     11     15      0.3383           15.62    
   1016      1     11     16      0.3288           15.62    
   1017      1     11     17      0.3209           15.62    
   1018      1     11     18      0.3155           15.62    
   1019      1     11     19      0.3116           15.62    
   1020      1     11     20      0.3054           15.62    
   1021      1     11     21      0.2945           15.62    
   1022      1     11     22      0.2823           15.62    
   1023      1     11     23      0.2679           15.62    
   1024      1     11     24      0.2554           15.62    
   1025      1     11     25      0.2421           15.62    
   1026      1     11     26      0.2289           15.62    
   1027      1     11     27      0.2175           15.62    
   1028      1     11     28      0.2064           15.62    
   1029      1     11     29      0.1986           15.62    
   1030      1     11     30      0.1943           15.62    
   1031      1     11     31      0.1917           15.62    
   1032      1     11     32      0.1902           15.62    
   1033      1     11     33      0.1880           15.62    
   1034      1     11     34      0.1833           15.62    
   1035      1     11     35      0.1763           15.62    
   1036      1     11     36      0.1644           15.62    
   1037      1     11     37      0.1563           15.62    
   1038      1     11     38      0.1601           15.62    
   1039      1     11     39      0.1693           15.62    
   1040      1     11     40      0.1763           15.62    
   1041      1     11     41      0.1815           15.62    
   1042      1     11     42      0.1845           15.62    
   1043      1     11     43      0.1858           15.62    
   1044      1     11     44      0.1860           15.62    
   1045      1     11     45      0.1852           15.62    
   1046      1     11     46      0.1835           15.62    
   1047      1     11     47      0.1819           15.62    
   1048      1     11     48      0.1839           15.62    
   1049      1     11     49      0.1876           15.62    
   1050      1     11     50      0.1900           15.62    
   1051      1     11     51      0.1909           15.62    
   1052      1     11     52      0.1907           15.62    
   1053      1     11     53      0.1891           15.62    
   1054      1     11     54      0.1861           15.62    
   1055      1     11     55      0.1827           15.62    
   1056      1     11     56      0.1796           15.62    
   1057      1     11     57      0.1755           15.62    
   1058      1     11     58      0.1713           15.62    
   1059      1     11     59      0.1677           15.62    
   1060      1     11     60      0.1634           15.62    
   1061      1     11     61      0.1600           15.62    
   1062      1     11     62      0.1560           15.62    
   1063      1     11     63      0.1514           15.62    
   1064      1     11     64      0.1463           15.62    
   1065      1     11     65      0.1389           15.62    
   1066      1     11     66      0.1304           15.62    
   1067      1     11     67      0.1237           15.62    
   1068      1     11     68      0.1186           15.62    
   1069      1     11     69      0.1149           15.62    
   1070      1     11     70      0.1109           15.62    
   1071      1     11     71      0.1065           15.62    
   1072      1     11     72      0.1019           15.62    
   1073      1     11     73      0.9568E-01       15.62    
   1074      1     11     74      0.9004E-01       15.62    
   1075      1     11     75      0.8625E-01       15.62    
   1076      1     11     76      0.8396E-01       15.62    
   1077      1     11     77      0.8147E-01       15.62    
   1078      1     11     78      0.7762E-01       15.62    
   1079      1     11     79      0.7270E-01       15.62    
   1080      1     11     80      0.6809E-01       15.62    
   1081      1     11     81      0.6301E-01       15.62    
   1082      1     11     82      0.5786E-01       15.62    
   1083      1     11     83      0.5327E-01       15.62    
   1084      1     11     84      0.4735E-01       15.62    
   1085      1     11     85      0.3999E-01       15.62    
   1086      1     11     86      0.2950E-01       15.62    
   1087      1     11     87      0.1704E-01       15.62    
   1088      1     11     88      0.5363E-02       15.62    
   1089      1     11     89       0.000           15.62    
   1090      1     11     90       0.000           15.62    
   1091      1     11     91     -0.6310E-01       15.62    
   1092      1     11     92     -0.8652E-01       15.62    
   1093      1     11     93     -0.1029           15.62    
   1094      1     11     94     -0.1237           15.62    
   1095      1     11     95     -0.1383           15.62    
   1096      1     11     96     -0.1603           15.62    
   1097      1     11     97     -0.2289           15.62    
   1098      1     11     98     -0.2050           15.62    
   1099      1     11     99     -0.1569           15.62    
   1100      1     11    100     -0.1391           15.62    
   1101      1     12      1      0.5005           15.62    
   1102      1     12      2      0.4995           15.62    
   1103      1     12      3      0.4984           15.62    
   1104      1     12      4      0.4965           15.62    
   1105      1     12      5      0.4937           15.62    
   1106      1     12      6      0.4895           15.62    
   1107      1     12      7      0.4814           15.62    
   1108      1     12      8      0.4671           15.62    
   1109      1     12      9      0.4475           15.62    
   1110      1     12     10      0.4195           15.62    
   1111      1     12     11      0.3936           15.62    
   1112      1     12     12      0.3655           15.62    
   1113      1     12     13      0.3402           15.62    
   1114      1     12     14      0.3244           15.62    
   1115      1     12     15      0.3130           15.62    
   1116      1     12     16      0.3076           15.62    
   1117      1     12     17      0.3017           15.62    
   1118      1     12     18      0.2963           15.62    
   1119      1     12     19      0.2915           15.62    
   1120      1     12     20      0.2843           15.62    
   1121      1     12     21      0.2741           15.62    
   1122      1     12     22      0.2635           15.62    
   1123      1     12     23      0.2507           15.62    
   1124      1     12     24      0.2391           15.62    
   1125      1     12     25      0.2265           15.62    
   1126      1     12     26      0.2146           15.62    
   1127      1     12     27      0.2049           15.62    
   1128      1     12     28      0.1957           15.62    
   1129      1     12     29      0.1895           15.62    
   1130      1     12     30      0.1857           15.62    
[...]
              ---                                      ---
             BOUNDARIES =      124961.1562            BOUNDARIES =           0.6250
          CONSTANT HEAD =           0.0000         CONSTANT HEAD =           0.0000
            ZONE CHANGE =    27815492.0000           ZONE CHANGE =         236.3465
       ZONE CHG TIP/TOE =    18880456.0000      ZONE CHG TIP/TOE =         175.5478
            ZONE MIXING =      710391.0000           ZONE MIXING =          35.9411

               TOTAL IN =    47531304.0000              TOTAL IN =         448.4604

             OUT:                                     OUT:
             ----                                     ----
             BOUNDARIES =    46363980.0000            BOUNDARIES =         424.2900
          CONSTANT HEAD =           0.0000         CONSTANT HEAD =           0.0000
            ZONE CHANGE =    18178610.0000           ZONE CHANGE =         186.7719
       ZONE CHG TIP/TOE =     2457383.7500      ZONE CHG TIP/TOE =          35.7174
            ZONE MIXING =           0.0000           ZONE MIXING =           0.0000

              TOTAL OUT =    66999976.0000             TOTAL OUT =         646.7794

               IN - OUT =   -19468672.0000              IN - OUT =        -198.3190

    PERCENT DISCREPANCY =         -34.00     PERCENT DISCREPANCY =         -36.21


 HEAD WILL BE SAVED ON UNIT   51 AT END OF TIME STEP  120, STRESS PERIOD    3
1
  VOLUMETRIC BUDGET FOR ENTIRE MODEL AT END OF TIME STEP  120, STRESS PERIOD   3
  ------------------------------------------------------------------------------

     CUMULATIVE VOLUMES      L**3       RATES FOR THIS TIME STEP      L**3/T
     ------------------                 ------------------------

           IN:                                      IN:
           ---                                      ---
             STORAGE =           0.0000               STORAGE =           0.0000
       CONSTANT HEAD =           0.0000         CONSTANT HEAD =           0.0000
          SWIADDTOCH =           0.0000            SWIADDTOCH =           0.0000
     HEAD DEP BOUNDS =           0.0000       HEAD DEP BOUNDS =           0.0000
            RECHARGE =   100121480.0000              RECHARGE =        1223.7500

            TOTAL IN =   100121480.0000              TOTAL IN =        1223.7500

          OUT:                                     OUT:
          ----                                     ----
             STORAGE =           0.0000               STORAGE =           0.0000
       CONSTANT HEAD =           0.0000         CONSTANT HEAD =           0.0000
          SWIADDTOCH =           0.0000            SWIADDTOCH =           0.0000
     HEAD DEP BOUNDS =   100121480.0000       HEAD DEP BOUNDS =        1223.7505
            RECHARGE =           0.0000              RECHARGE =           0.0000

           TOTAL OUT =   100121480.0000             TOTAL OUT =        1223.7505

            IN - OUT =           0.0000              IN - OUT =      -4.8828E-04

 PERCENT DISCREPANCY =           0.00     PERCENT DISCREPANCY =          -0.00






         TIME SUMMARY AT END OF TIME STEP  120 IN STRESS PERIOD    3
                    SECONDS     MINUTES      HOURS       DAYS        YEARS
                    -----------------------------------------------------------
   TIME STEP LENGTH 3.15576E+06  52596.      876.60      36.525     0.10000    
 STRESS PERIOD TIME 3.78691E+08 6.31151E+06 1.05192E+05  4383.0      12.000    
         TOTAL TIME 7.06888E+09 1.17815E+08 1.96358E+06  81816.      224.00    
1
 
 SOLVING FOR HEAD 

 NO OUTPUT CONTROL FOR STRESS PERIOD    3   TIME STEP  121
 SOLVING FOR ZETA FOR LAYER     1 ZONE     2
 SOLVING FOR ZETA FOR LAYER     2 ZONE     2
 
 SOLVING FOR HEAD 

 NO OUTPUT CONTROL FOR STRESS PERIOD    3   TIME STEP  122
 SOLVING FOR ZETA FOR LAYER     1 ZONE     2
 SOLVING FOR ZETA FOR LAYER     2 ZONE     2
 
 SOLVING FOR HEAD 

 NO OUTPUT CONTROL FOR STRESS PERIOD    3   TIME STEP  123
 SOLVING FOR ZETA FOR LAYER     1 ZONE     2
 SOLVING FOR ZETA FOR LAYER     2 ZONE     2
 
 SOLVING FOR HEAD 

 NO OUTPUT CONTROL FOR STRESS PERIOD    3   TIME STEP  124
 SOLVING FOR ZETA FOR LAYER     1 ZONE     2
 SOLVING FOR ZETA FOR LAYER     2 ZONE     2
 
 SOLVING FOR HEAD 

 NO OUTPUT CONTROL FOR STRESS PERIOD    3   TIME STEP  125
 SOLVING FOR ZETA FOR LAYER     1 ZONE     2
 SOLVING FOR ZETA FOR LAYER     2 ZONE     2
 
 SOLVING FOR HEAD 

 NO OUTPUT CONTROL FOR STRESS PERIOD    3   TIME STEP  126
 SOLVING FOR ZETA FOR LAYER     1 ZONE     2
 SOLVING FOR ZETA FOR LAYER     2 ZONE     2
 
 SOLVING FOR HEAD 

 NO OUTPUT CONTROL FOR STRESS PERIOD    3   TIME STEP  127
 SOLVING FOR ZETA FOR LAYER     1 ZONE     2
 SOLVING FOR ZETA FOR LAYER     2 ZONE     2
 
 SOLVING FOR HEAD 

 NO OUTPUT CONTROL FOR STRESS PERIOD    3   TIME STEP  128
 SOLVING FOR ZETA FOR LAYER     1 ZONE     2
 SOLVING FOR ZETA FOR LAYER     2 ZONE     2
 
 SOLVING FOR HEAD 

 NO OUTPUT CONTROL FOR STRESS PERIOD    3   TIME STEP  129
 SOLVING FOR ZETA FOR LAYER     1 ZONE     2
 SOLVING FOR ZETA FOR LAYER     2 ZONE     2
 
 SOLVING FOR HEAD 

 NO OUTPUT CONTROL FOR STRESS PERIOD    3   TIME STEP  130
 SOLVING FOR ZETA FOR LAYER     1 ZONE     2
 SOLVING FOR ZETA FOR LAYER     2 ZONE     2
 
 SOLVING FOR HEAD 

 NO OUTPUT CONTROL FOR STRESS PERIOD    3   TIME STEP  131
 SOLVING FOR ZETA FOR LAYER     1 ZONE     2
 SOLVING FOR ZETA FOR LAYER     2 ZONE     2
 
 SOLVING FOR HEAD 

 NO OUTPUT CONTROL FOR STRESS PERIOD    3   TIME STEP  132
 SOLVING FOR ZETA FOR LAYER     1 ZONE     2
 SOLVING FOR ZETA FOR LAYER     2 ZONE     2
 
 SOLVING FOR HEAD 

 NO OUTPUT CONTROL FOR STRESS PERIOD    3   TIME STEP  133
 SOLVING FOR ZETA FOR LAYER     1 ZONE     2
 SOLVING FOR ZETA FOR LAYER     2 ZONE     2
 
 SOLVING FOR HEAD 

 NO OUTPUT CONTROL FOR STRESS PERIOD    3   TIME STEP  134
 SOLVING FOR ZETA FOR LAYER     1 ZONE     2
 SOLVING FOR ZETA FOR LAYER     2 ZONE     2
 
 SOLVING FOR HEAD 

 NO OUTPUT CONTROL FOR STRESS PERIOD    3   TIME STEP  135
 SOLVING FOR ZETA FOR LAYER     1 ZONE     2
 SOLVING FOR ZETA FOR LAYER     2 ZONE     2
 
 SOLVING FOR HEAD 

 NO OUTPUT CONTROL FOR STRESS PERIOD    3   TIME STEP  136
 SOLVING FOR ZETA FOR LAYER     1 ZONE     2
 SOLVING FOR ZETA FOR LAYER     2 ZONE     2
 
 SOLVING FOR HEAD 

 NO OUTPUT CONTROL FOR STRESS PERIOD    3   TIME STEP  137
 SOLVING FOR ZETA FOR LAYER     1 ZONE     2
 SOLVING FOR ZETA FOR LAYER     2 ZONE     2
 
 SOLVING FOR HEAD 

 NO OUTPUT CONTROL FOR STRESS PERIOD    3   TIME STEP  138
 SOLVING FOR ZETA FOR LAYER     1 ZONE     2
 SOLVING FOR ZETA FOR LAYER     2 ZONE     2
 
 SOLVING FOR HEAD 

 NO OUTPUT CONTROL FOR STRESS PERIOD    3   TIME STEP  139
 SOLVING FOR ZETA FOR LAYER     1 ZONE     2
 SOLVING FOR ZETA FOR LAYER     2 ZONE     2
 
 SOLVING FOR HEAD 

 NO OUTPUT CONTROL FOR STRESS PERIOD    3   TIME STEP  140
 SOLVING FOR ZETA FOR LAYER     1 ZONE     2
 SOLVING FOR ZETA FOR LAYER     2 ZONE     2
 
 SOLVING FOR HEAD 

 NO OUTPUT CONTROL FOR STRESS PERIOD    3   TIME STEP  141
 SOLVING FOR ZETA FOR LAYER     1 ZONE     2
 SOLVING FOR ZETA FOR LAYER     2 ZONE     2
 
 SOLVING FOR HEAD 

 NO OUTPUT CONTROL FOR STRESS PERIOD    3   TIME STEP  142
 SOLVING FOR ZETA FOR LAYER     1 ZONE     2
 SOLVING FOR ZETA FOR LAYER     2 ZONE     2
 
 SOLVING FOR HEAD 

 NO OUTPUT CONTROL FOR STRESS PERIOD    3   TIME STEP  143
 SOLVING FOR ZETA FOR LAYER     1 ZONE     2
 SOLVING FOR ZETA FOR LAYER     2 ZONE     2
 
 SOLVING FOR HEAD 

 NO OUTPUT CONTROL FOR STRESS PERIOD    3   TIME STEP  144
 SOLVING FOR ZETA FOR LAYER     1 ZONE     2
 SOLVING FOR ZETA FOR LAYER     2 ZONE     2
 
 SOLVING FOR HEAD 

 NO OUTPUT CONTROL FOR STRESS PERIOD    3   TIME STEP  145
 SOLVING FOR ZETA FOR LAYER     1 ZONE     2
 SOLVING FOR ZETA FOR LAYER     2 ZONE     2
 
 SOLVING FOR HEAD 

 NO OUTPUT CONTROL FOR STRESS PERIOD    3   TIME STEP  146
 SOLVING FOR ZETA FOR LAYER     1 ZONE     2
 SOLVING FOR ZETA FOR LAYER     2 ZONE     2
 
 SOLVING FOR HEAD 

 NO OUTPUT CONTROL FOR STRESS PERIOD    3   TIME STEP  147
 SOLVING FOR ZETA FOR LAYER     1 ZONE     2
 SOLVING FOR ZETA FOR LAYER     2 ZONE     2
 
 SOLVING FOR HEAD 

 NO OUTPUT CONTROL FOR STRESS PERIOD    3   TIME STEP  148
 SOLVING FOR ZETA FOR LAYER     1 ZONE     2
 SOLVING FOR ZETA FOR LAYER     2 ZONE     2
 
 SOLVING FOR HEAD 

 NO OUTPUT CONTROL FOR STRESS PERIOD    3   TIME STEP  149
 SOLVING FOR ZETA FOR LAYER     1 ZONE     2
 SOLVING FOR ZETA FOR LAYER     2 ZONE     2
 
 SOLVING FOR HEAD 

 NO OUTPUT CONTROL FOR STRESS PERIOD    3   TIME STEP  150
 SOLVING FOR ZETA FOR LAYER     1 ZONE     2
 SOLVING FOR ZETA FOR LAYER     2 ZONE     2
 
 SOLVING FOR HEAD 

 NO OUTPUT CONTROL FOR STRESS PERIOD    3   TIME STEP  151
 SOLVING FOR ZETA FOR LAYER     1 ZONE     2
 SOLVING FOR ZETA FOR LAYER     2 ZONE     2
 
 SOLVING FOR HEAD 

 NO OUTPUT CONTROL FOR STRESS PERIOD    3   TIME STEP  152
 SOLVING FOR ZETA FOR LAYER     1 ZONE     2
 SOLVING FOR ZETA FOR LAYER     2 ZONE     2
 
 SOLVING FOR HEAD 

 NO OUTPUT CONTROL FOR STRESS PERIOD    3   TIME STEP  153
 SOLVING FOR ZETA FOR LAYER     1 ZONE     2
 SOLVING FOR ZETA FOR LAYER     2 ZONE     2
 
 SOLVING FOR HEAD 

 NO OUTPUT CONTROL FOR STRESS PERIOD    3   TIME STEP  154
 SOLVING FOR ZETA FOR LAYER     1 ZONE     2
 SOLVING FOR ZETA FOR LAYER     2 ZONE     2
 
 SOLVING FOR HEAD 

 NO OUTPUT CONTROL FOR STRESS PERIOD    3   TIME STEP  155
 SOLVING FOR ZETA FOR LAYER     1 ZONE     2
 SOLVING FOR ZETA FOR LAYER     2 ZONE     2
 
 SOLVING FOR HEAD 

 NO OUTPUT CONTROL FOR STRESS PERIOD    3   TIME STEP  156
 SOLVING FOR ZETA FOR LAYER     1 ZONE     2
 SOLVING FOR ZETA FOR LAYER     2 ZONE     2
 
 SOLVING FOR HEAD 

 NO OUTPUT CONTROL FOR STRESS PERIOD    3   TIME STEP  157
 SOLVING FOR ZETA FOR LAYER     1 ZONE     2
 SOLVING FOR ZETA FOR LAYER     2 ZONE     2
 
 SOLVING FOR HEAD 

 NO OUTPUT CONTROL FOR STRESS PERIOD    3   TIME STEP  158
 SOLVING FOR ZETA FOR LAYER     1 ZONE     2
 SOLVING FOR ZETA FOR LAYER     2 ZONE     2
 
 SOLVING FOR HEAD 

 NO OUTPUT CONTROL FOR STRESS PERIOD    3   TIME STEP  159
 SOLVING FOR ZETA FOR LAYER     1 ZONE     2
 SOLVING FOR ZETA FOR LAYER     2 ZONE     2
 
 SOLVING FOR HEAD 

 NO OUTPUT CONTROL FOR STRESS PERIOD    3   TIME STEP  160
 SOLVING FOR ZETA FOR LAYER     1 ZONE     2
 SOLVING FOR ZETA FOR LAYER     2 ZONE     2
 
 SOLVING FOR HEAD 

 NO OUTPUT CONTROL FOR STRESS PERIOD    3   TIME STEP  161
 SOLVING FOR ZETA FOR LAYER     1 ZONE     2
 SOLVING FOR ZETA FOR LAYER     2 ZONE     2
 
 SOLVING FOR HEAD 

 NO OUTPUT CONTROL FOR STRESS PERIOD    3   TIME STEP  162
 SOLVING FOR ZETA FOR LAYER     1 ZONE     2
 SOLVING FOR ZETA FOR LAYER     2 ZONE     2
 
 SOLVING FOR HEAD 

 NO OUTPUT CONTROL FOR STRESS PERIOD    3   TIME STEP  163
 SOLVING FOR ZETA FOR LAYER     1 ZONE     2
 SOLVING FOR ZETA FOR LAYER     2 ZONE     2
 
 SOLVING FOR HEAD 

 NO OUTPUT CONTROL FOR STRESS PERIOD    3   TIME STEP  164
 SOLVING FOR ZETA FOR LAYER     1 ZONE     2
 SOLVING FOR ZETA FOR LAYER     2 ZONE     2
 
 SOLVING FOR HEAD 

 NO OUTPUT CONTROL FOR STRESS PERIOD    3   TIME STEP  165
 SOLVING FOR ZETA FOR LAYER     1 ZONE     2
 SOLVING FOR ZETA FOR LAYER     2 ZONE     2
 
 SOLVING FOR HEAD 

 NO OUTPUT CONTROL FOR STRESS PERIOD    3   TIME STEP  166
 SOLVING FOR ZETA FOR LAYER     1 ZONE     2
 SOLVING FOR ZETA FOR LAYER     2 ZONE     2
 
 SOLVING FOR HEAD 

 NO OUTPUT CONTROL FOR STRESS PERIOD    3   TIME STEP  167
 SOLVING FOR ZETA FOR LAYER     1 ZONE     2
 SOLVING FOR ZETA FOR LAYER     2 ZONE     2
 
 SOLVING FOR HEAD 

 NO OUTPUT CONTROL FOR STRESS PERIOD    3   TIME STEP  168
 SOLVING FOR ZETA FOR LAYER     1 ZONE     2
 SOLVING FOR ZETA FOR LAYER     2 ZONE     2
 
 SOLVING FOR HEAD 

 NO OUTPUT CONTROL FOR STRESS PERIOD    3   TIME STEP  169
 SOLVING FOR ZETA FOR LAYER     1 ZONE     2
 SOLVING FOR ZETA FOR LAYER     2 ZONE     2
 
 SOLVING FOR HEAD 

 NO OUTPUT CONTROL FOR STRESS PERIOD    3   TIME STEP  170
 SOLVING FOR ZETA FOR LAYER     1 ZONE     2
 SOLVING FOR ZETA FOR LAYER     2 ZONE     2
 
 SOLVING FOR HEAD 

 NO OUTPUT CONTROL FOR STRESS PERIOD    3   TIME STEP  171
 SOLVING FOR ZETA FOR LAYER     1 ZONE     2
 SOLVING FOR ZETA FOR LAYER     2 ZONE     2
 
 SOLVING FOR HEAD 

 NO OUTPUT CONTROL FOR STRESS PERIOD    3   TIME STEP  172
 SOLVING FOR ZETA FOR LAYER     1 ZONE     2
 SOLVING FOR ZETA FOR LAYER     2 ZONE     2
 
 SOLVING FOR HEAD 

 NO OUTPUT CONTROL FOR STRESS PERIOD    3   TIME STEP  173
 SOLVING FOR ZETA FOR LAYER     1 ZONE     2
 SOLVING FOR ZETA FOR LAYER     2 ZONE     2
 
 SOLVING FOR HEAD 

 NO OUTPUT CONTROL FOR STRESS PERIOD    3   TIME STEP  174
 SOLVING FOR ZETA FOR LAYER     1 ZONE     2
 SOLVING FOR ZETA FOR LAYER     2 ZONE     2
 
 SOLVING FOR HEAD 

 NO OUTPUT CONTROL FOR STRESS PERIOD    3   TIME STEP  175
 SOLVING FOR ZETA FOR LAYER     1 ZONE     2
 SOLVING FOR ZETA FOR LAYER     2 ZONE     2
 
 SOLVING FOR HEAD 

 NO OUTPUT CONTROL FOR STRESS PERIOD    3   TIME STEP  176
 SOLVING FOR ZETA FOR LAYER     1 ZONE     2
 SOLVING FOR ZETA FOR LAYER     2 ZONE     2
 
 SOLVING FOR HEAD 

 NO OUTPUT CONTROL FOR STRESS PERIOD    3   TIME STEP  177
 SOLVING FOR ZETA FOR LAYER     1 ZONE     2
 SOLVING FOR ZETA FOR LAYER     2 ZONE     2
 
 SOLVING FOR HEAD 

 NO OUTPUT CONTROL FOR STRESS PERIOD    3   TIME STEP  178
 SOLVING FOR ZETA FOR LAYER     1 ZONE     2
 SOLVING FOR ZETA FOR LAYER     2 ZONE     2
 
 SOLVING FOR HEAD 

 NO OUTPUT CONTROL FOR STRESS PERIOD    3   TIME STEP  179
 SOLVING FOR ZETA FOR LAYER     1 ZONE     2
 SOLVING FOR ZETA FOR LAYER     2 ZONE     2
 
 SOLVING FOR HEAD 

 OUTPUT CONTROL FOR STRESS PERIOD    3   TIME STEP  180
    PRINT BUDGET
    SAVE HEAD FOR ALL LAYERS
 SOLVING FOR ZETA FOR LAYER     1 ZONE     2
 SOLVING FOR ZETA FOR LAYER     2 ZONE     2
 UBUDSV SAVING "      ZETASRF  1" ON UNIT 55 AT TIME STEP180, STRESS PERIOD    3


                      VOLUMETRIC SWI ZONE BUDGET FOR ENTIRE MODEL
                     AT END OF TIME STEP  180 IN STRESS PERIOD   3
                                      ZONE     1
  -----------------------------------------------------------------------------------

        CUMULATIVE VOLUMES      L**3       RATES FOR THIS TIME STEP      L**3/T
        ------------------                 ------------------------

              IN:                                      IN:
              ---                                      ---
             BOUNDARIES =   102677320.0000            BOUNDARIES =        1223.1250
          CONSTANT HEAD =           0.0000         CONSTANT HEAD =           0.0000
            ZONE CHANGE =     5069081.0000           ZONE CHANGE =          82.3699
       ZONE CHG TIP/TOE =    18455128.0000      ZONE CHG TIP/TOE =         212.1369
            ZONE MIXING =           0.0000           ZONE MIXING =           0.0000

               TOTAL IN =   126201528.0000              TOTAL IN =        1517.6318

             OUT:                                     OUT:
             ----                                     ----
             BOUNDARIES =    55475384.0000            BOUNDARIES =         800.9383
          CONSTANT HEAD =           0.0000         CONSTANT HEAD =           0.0000
            ZONE CHANGE =    44244088.0000           ZONE CHANGE =         404.5191
       ZONE CHG TIP/TOE =     5751995.0000      ZONE CHG TIP/TOE =          77.5894
            ZONE MIXING =      791334.6250           ZONE MIXING =          37.5511

              TOTAL OUT =   106262800.0000             TOTAL OUT =        1320.5979

               IN - OUT =    19938728.0000              IN - OUT =         197.0339

    PERCENT DISCREPANCY =          17.15     PERCENT DISCREPANCY =          13.88



                      VOLUMETRIC SWI ZONE BUDGET FOR ENTIRE MODEL
                     AT END OF TIME STEP  180 IN STRESS PERIOD   3
                                      ZONE     2
  -----------------------------------------------------------------------------------

        CUMULATIVE VOLUMES      L**3       RATES FOR THIS TIME STEP      L**3/T
        ------------------                 ------------------------

              IN:                                      IN:
              ---                                      ---
             BOUNDARIES =      126330.8438            BOUNDARIES =           0.6250
          CONSTANT HEAD =           0.0000         CONSTANT HEAD =           0.0000
            ZONE CHANGE =    28337220.0000           ZONE CHANGE =         234.5286
       ZONE CHG TIP/TOE =    19279196.0000      ZONE CHG TIP/TOE =         182.3915
            ZONE MIXING =      791334.6250           ZONE MIXING =          37.5511

               TOTAL IN =    48534080.0000              TOTAL IN =         455.0962

             OUT:                                     OUT:
             ----                                     ----
             BOUNDARIES =    47328832.0000            BOUNDARIES =         422.8122
          CONSTANT HEAD =           0.0000         CONSTANT HEAD =           0.0000
            ZONE CHANGE =    18596268.0000           ZONE CHANGE =         187.1720
       ZONE CHG TIP/TOE =     2548285.2500      ZONE CHG TIP/TOE =          42.1464
            ZONE MIXING =           0.0000           ZONE MIXING =           0.0000

              TOTAL OUT =    68473384.0000             TOTAL OUT =         652.1306

               IN - OUT =   -19939304.0000              IN - OUT =        -197.0344

    PERCENT DISCREPANCY =         -34.08     PERCENT DISCREPANCY =         -35.59


 HEAD WILL BE SAVED ON UNIT   51 AT END OF TIME STEP  180, STRESS PERIOD    3
1
  VOLUMETRIC BUDGET FOR ENTIRE MODEL AT END OF TIME STEP  180, STRESS PERIOD   3
  ------------------------------------------------------------------------------

     CUMULATIVE VOLUMES      L**3       RATES FOR THIS TIME STEP      L**3/T
     ------------------                 ------------------------

           IN:                                      IN:
           ---                                      ---
             STORAGE =           0.0000               STORAGE =           0.0000
       CONSTANT HEAD =           0.0000         CONSTANT HEAD =           0.0000
          SWIADDTOCH =           0.0000            SWIADDTOCH =           0.0000
     HEAD DEP BOUNDS =           0.0000       HEAD DEP BOUNDS =           0.0000
            RECHARGE =   102803240.0000              RECHARGE =        1223.7500

            TOTAL IN =   102803240.0000              TOTAL IN =        1223.7500

          OUT:                                     OUT:
          ----                                     ----
             STORAGE =           0.0000               STORAGE =           0.0000
       CONSTANT HEAD =           0.0000         CONSTANT HEAD =           0.0000
          SWIADDTOCH =           0.0000            SWIADDTOCH =           0.0000
     HEAD DEP BOUNDS =   102803240.0000       HEAD DEP BOUNDS =        1223.7505
            RECHARGE =           0.0000              RECHARGE =           0.0000

           TOTAL OUT =   102803240.0000             TOTAL OUT =        1223.7505

            IN - OUT =           0.0000              IN - OUT =      -4.8828E-04

 PERCENT DISCREPANCY =           0.00     PERCENT DISCREPANCY =          -0.00






         TIME SUMMARY AT END OF TIME STEP  180 IN STRESS PERIOD    3
                    SECONDS     MINUTES      HOURS       DAYS        YEARS
                    -----------------------------------------------------------
   TIME STEP LENGTH 3.15576E+06  52596.      876.60      36.525     0.10000    
 STRESS PERIOD TIME 5.68036E+08 9.46726E+06 1.57788E+05  6574.5      18.000    
         TOTAL TIME 7.25822E+09 1.20970E+08 2.01617E+06  84007.      230.00    
1

 Run end date and time (yyyy/mm/dd hh:mm:ss): 2017/12/07 22:25:21
 Elapsed run time:  1 Minutes, 27.966 Seconds

